


 46 52  0  0  0  0  0  0  0  0999 V2000
    8.3806   -6.9741   45.9475 O   0  0  0  0  0  0  0  0  0  0  0  0
    8.2080   -6.0621   46.8000 C   0  0  0  0  0  0  0  0  0  0  0  0
    7.0664   -6.0514   47.6438 N   0  0  0  0  0  0  0  0  0  0  0  0
    7.0393   -5.4011   48.3824 H   0  0  0  0  0  0  0  0  0  0  0  0
    5.9700   -6.9215   47.4813 C   0  0  0  0  0  0  0  0  0  0  0  0
    5.6276   -7.8361   48.4045 N   0  0  0  0  0  0  0  0  0  0  0  0
    4.5758   -8.5578   48.0342 N   0  0  0  0  0  0  0  0  0  0  0  0
    4.0960   -8.1985   46.8244 C   0  0  0  0  0  0  0  0  0  0  0  0
    4.9619   -6.9227   46.1404 S   0  0  0  0  0  0  0  0  0  0  0  0
    2.9775   -8.8267   46.2075 N   0  0  0  0  0  0  0  0  0  0  0  0
    2.7609  -10.2596   46.4680 C   0  0  0  0  0  0  0  0  0  0  0  0
    1.5098  -10.8296   45.7958 C   0  0  0  0  0  0  0  0  0  0  0  0
    0.3802   -9.8104   45.8199 C   0  0  0  0  0  0  0  0  0  0  0  0
    0.8302   -8.6567   44.9407 C   0  0  0  0  0  0  0  0  0  0  0  0
    1.9927   -7.9292   45.5909 C   0  0  0  0  0  0  0  0  0  0  0  0
   -0.9492  -10.4455   45.3723 C   0  0  0  0  0  0  0  0  0  0  0  0
   -1.7842   -9.5595   44.4809 C   0  0  0  0  0  0  0  0  0  0  0  0
   -1.6180   -9.5146   43.1411 N   0  0  0  0  0  0  0  0  0  0  0  0
   -2.5060   -8.6562   42.6483 N   0  0  0  0  0  0  0  0  0  0  0  0
   -3.2039   -8.1967   43.7001 C   0  0  0  0  0  0  0  0  0  0  0  0
   -4.2516   -7.2753   43.6762 C   0  0  0  0  0  0  0  0  0  0  0  0
   -4.8341   -6.9458   44.8633 N   0  0  0  0  0  0  0  0  0  0  0  0
   -4.4088   -7.4980   46.0432 C   0  0  0  0  0  0  0  0  0  0  0  0
   -3.3496   -8.4268   46.0517 C   0  0  0  0  0  0  0  0  0  0  0  0
   -2.7888   -8.7366   44.8545 N   0  0  0  0  0  0  0  0  0  0  0  0
    9.2370   -5.0052   46.9955 C   0  0  0  0  0  0  0  0  0  0  0  0
    8.6165   -3.7387   47.3631 N   0  0  0  0  0  0  0  0  0  0  0  0
    7.7478   -3.6052   48.4404 N   0  0  0  0  0  0  0  0  0  0  0  0
    7.2922   -2.4277   48.5418 N   0  0  0  0  0  0  0  0  0  0  0  0
    7.8005   -1.5552   47.4862 C   0  0  0  0  0  0  0  0  0  0  0  0
    6.6977   -1.2370   46.5297 C   0  0  0  0  0  0  0  0  0  0  0  0
    5.7147   -0.5041   46.8187 O   0  0  0  0  0  0  0  0  0  0  0  0
    6.8774   -1.8208   45.2506 N   0  0  0  0  0  0  0  0  0  0  0  0
    8.1022   -2.5308   45.3169 C   0  0  0  0  0  0  0  0  0  0  0  0
    8.5910   -3.1497   44.3347 O   0  0  0  0  0  0  0  0  0  0  0  0
    8.7510   -2.4703   46.6653 C   0  0  0  0  0  0  0  0  0  0  0  0
    5.8882   -1.9469   44.2166 C   0  0  0  0  0  0  0  0  0  0  0  0
    6.2091   -1.6122   42.8892 C   0  0  0  0  0  0  0  0  0  0  0  0
    7.4363   -1.1207   42.5835 F   0  0  0  0  0  0  0  0  0  0  0  0
    5.2554   -1.7616   41.8760 C   0  0  0  0  0  0  0  0  0  0  0  0
    5.5622   -1.4352   40.5969 F   0  0  0  0  0  0  0  0  0  0  0  0
    3.9823   -2.2472   42.1785 C   0  0  0  0  0  0  0  0  0  0  0  0
    3.6551   -2.5851   43.4925 C   0  0  0  0  0  0  0  0  0  0  0  0
    2.4216   -3.0716   43.7724 F   0  0  0  0  0  0  0  0  0  0  0  0
    4.6019   -2.4369   44.5125 C   0  0  0  0  0  0  0  0  0  0  0  0
    4.2822   -2.8163   45.7754 F   0  0  0  0  0  0  0  0  0  0  0  0
  1  2  2  0  0  0
  2 26  1  0  0  0
 26 27  1  0  0  0
 27 28  1  0  0  0
 28 29  2  0  0  0
 30 29  1  0  0  0
 30 31  1  0  0  0
 31 32  2  0  0  0
 31 33  1  0  0  0
 33 37  1  0  0  0
 37 38  2  0  0  0
 38 39  1  0  0  0
 38 40  1  0  0  0
 40 41  1  0  0  0
 40 42  2  0  0  0
 42 43  1  0  0  0
 43 44  1  0  0  0
 43 45  2  0  0  0
 45 46  1  0  0  0
 33 34  1  0  0  0
 34 35  2  0  0  0
 36 34  1  0  0  0
  2  3  1  0  0  0
  3  5  1  0  0  0
  5  6  2  0  0  0
  6  7  1  0  0  0
  7  8  2  0  0  0
  8 10  1  0  0  0
 10 11  1  0  0  0
 11 12  1  0  0  0
 12 13  1  0  0  0
 13 16  1  0  0  0
 16 17  1  0  0  0
 17 18  2  0  0  0
 18 19  1  0  0  0
 19 20  2  0  0  0
 20 21  1  0  0  0
 21 22  2  0  0  0
 22 23  1  0  0  0
 23 24  2  0  0  0
 24 25  1  0  0  0
 13 14  1  0  0  0
 14 15  1  0  0  0
  8  9  1  0  0  0
 36 27  1  0  0  0
  9  5  1  0  0  0
 36 30  1  0  0  0
 15 10  1  0  0  0
 45 37  1  0  0  0
 25 17  1  0  0  0
 25 20  1  0  0  0
  3  4  1  0  0  0
M  END
>  <CNNaffinity>
9.23387

>  <CNNscore>
0.490798

>  <minimizedAffinity>
8.82057

>  <minimizedRMSD>
2.20244

>  <molecular weight>
625.413

$$$$



 42 46  0  0  0  0  0  0  0  0999 V2000
    8.0908   -6.8012   46.8223 C   0  0  0  0  0  0  0  0  0  0  0  0
    8.1858   -7.7819   46.0361 O   0  0  0  0  0  0  0  0  0  0  0  0
    6.9202   -6.5942   47.5988 N   0  0  0  0  0  0  0  0  0  0  0  0
    6.9345   -5.8874   48.2840 H   0  0  0  0  0  0  0  0  0  0  0  0
    5.7395   -7.3463   47.4413 C   0  0  0  0  0  0  0  0  0  0  0  0
    5.2899   -8.1990   48.3783 N   0  0  0  0  0  0  0  0  0  0  0  0
    4.1693   -8.8092   48.0086 N   0  0  0  0  0  0  0  0  0  0  0  0
    3.7447   -8.4245   46.7859 C   0  0  0  0  0  0  0  0  0  0  0  0
    4.7502   -7.2629   46.0899 S   0  0  0  0  0  0  0  0  0  0  0  0
    2.5709   -8.9388   46.1662 N   0  0  0  0  0  0  0  0  0  0  0  0
    2.0906  -10.2643   46.5900 C   0  0  0  0  0  0  0  0  0  0  0  0
    0.8004  -10.7070   45.8961 C   0  0  0  0  0  0  0  0  0  0  0  0
   -0.1312   -9.5209   45.6948 C   0  0  0  0  0  0  0  0  0  0  0  0
    0.5663   -8.5950   44.7140 C   0  0  0  0  0  0  0  0  0  0  0  0
    1.7980   -7.9863   45.3589 C   0  0  0  0  0  0  0  0  0  0  0  0
   -1.5230   -9.9821   45.2246 C   0  0  0  0  0  0  0  0  0  0  0  0
   -2.2646   -8.9575   44.4017 C   0  0  0  0  0  0  0  0  0  0  0  0
   -1.9560   -8.7013   43.1116 N   0  0  0  0  0  0  0  0  0  0  0  0
   -2.7927   -7.7671   42.6698 N   0  0  0  0  0  0  0  0  0  0  0  0
   -3.6031   -7.4744   43.7005 C   0  0  0  0  0  0  0  0  0  0  0  0
   -4.6493   -6.5514   43.7117 C   0  0  0  0  0  0  0  0  0  0  0  0
   -5.3583   -6.4097   44.8668 N   0  0  0  0  0  0  0  0  0  0  0  0
   -5.0576   -7.1467   45.9824 C   0  0  0  0  0  0  0  0  0  0  0  0
   -3.9982   -8.0748   45.9561 C   0  0  0  0  0  0  0  0  0  0  0  0
   -3.3098   -8.1952   44.7918 N   0  0  0  0  0  0  0  0  0  0  0  0
    9.2448   -5.8672   47.0100 C   0  0  0  0  0  0  0  0  0  0  0  0
    9.8239   -6.7560   49.2907 C   0  0  0  0  0  0  0  0  0  0  0  0
    9.5594   -5.5060   48.4700 C   0  0  0  0  0  0  0  0  0  0  0  0
   10.7842   -4.6125   48.5506 C   0  0  0  0  0  0  0  0  0  0  0  0
    9.1962   -4.7054   46.1103 N   0  0  0  0  0  0  0  0  0  0  0  0
    9.1618   -5.0427   45.1483 H   0  0  0  0  0  0  0  0  0  0  0  0
    7.8169   -3.6745   46.3841 S   0  0  0  0  0  0  0  0  0  0  0  0
    7.5413   -3.5212   47.8541 O   0  0  0  0  0  0  0  0  0  0  0  0
    6.6136   -4.2546   45.6955 O   0  0  0  0  0  0  0  0  0  0  0  0
    8.1653   -2.1018   45.7002 C   0  0  0  0  0  0  0  0  0  0  0  0
    7.2408   -1.1477   45.7056 C   0  0  0  0  0  0  0  0  0  0  0  0
    7.4773    0.1900   45.1460 C   0  0  0  0  0  0  0  0  0  0  0  0
    8.7069    0.5421   44.5659 C   0  0  0  0  0  0  0  0  0  0  0  0
    8.8970    1.8246   44.0429 C   0  0  0  0  0  0  0  0  0  0  0  0
    7.8612    2.7614   44.0964 C   0  0  0  0  0  0  0  0  0  0  0  0
    6.6355    2.4159   44.6727 C   0  0  0  0  0  0  0  0  0  0  0  0
    6.4450    1.1333   45.1959 C   0  0  0  0  0  0  0  0  0  0  0  0
 27 28  1  0  0  0
 28 29  1  0  0  0
 26 28  1  0  0  0
 26 30  1  0  0  0
 30 32  1  0  0  0
 32 33  2  0  0  0
 32 34  2  0  0  0
 32 35  1  0  0  0
 35 36  2  0  0  0
 36 37  1  0  0  0
 37 38  2  0  0  0
 38 39  1  0  0  0
 39 40  2  0  0  0
 40 41  1  0  0  0
 41 42  2  0  0  0
 26  1  1  0  0  0
  1  2  2  0  0  0
  1  3  1  0  0  0
  3  5  1  0  0  0
  5  6  2  0  0  0
  6  7  1  0  0  0
  7  8  2  0  0  0
  8 10  1  0  0  0
 10 11  1  0  0  0
 11 12  1  0  0  0
 12 13  1  0  0  0
 13 16  1  0  0  0
 16 17  1  0  0  0
 17 18  2  0  0  0
 18 19  1  0  0  0
 19 20  2  0  0  0
 20 21  1  0  0  0
 21 22  2  0  0  0
 22 23  1  0  0  0
 23 24  2  0  0  0
 24 25  1  0  0  0
 13 14  1  0  0  0
 14 15  1  0  0  0
  8  9  1  0  0  0
 42 37  1  0  0  0
  9  5  1  0  0  0
 15 10  1  0  0  0
 25 17  1  0  0  0
 25 20  1  0  0  0
 30 31  1  0  0  0
  3  4  1  0  0  0
M  END
>  <CNNaffinity>
8.86556

>  <CNNscore>
0.283831

>  <minimizedAffinity>
6.27624

>  <minimizedRMSD>
0.55464

>  <molecular weight>
552.483

$$$$



 49 55  0  0  0  0  0  0  0  0999 V2000
    7.9716   -6.6822   47.2481 C   0  0  0  0  0  0  0  0  0  0  0  0
    8.1333   -7.4768   46.2813 O   0  0  0  0  0  0  0  0  0  0  0  0
    6.7908   -6.7101   48.0336 N   0  0  0  0  0  0  0  0  0  0  0  0
    6.7517   -6.1429   48.8374 H   0  0  0  0  0  0  0  0  0  0  0  0
    5.6702   -7.5079   47.7234 C   0  0  0  0  0  0  0  0  0  0  0  0
    5.3047   -8.5685   48.4645 N   0  0  0  0  0  0  0  0  0  0  0  0
    4.2334   -9.1822   47.9742 N   0  0  0  0  0  0  0  0  0  0  0  0
    3.7616   -8.5942   46.8539 C   0  0  0  0  0  0  0  0  0  0  0  0
    4.6588   -7.2349   46.4129 S   0  0  0  0  0  0  0  0  0  0  0  0
    2.6262   -9.0692   46.1379 N   0  0  0  0  0  0  0  0  0  0  0  0
    2.2729  -10.4927   46.2689 C   0  0  0  0  0  0  0  0  0  0  0  0
    1.0136  -10.8927   45.4964 C   0  0  0  0  0  0  0  0  0  0  0  0
   -0.0229   -9.7802   45.5528 C   0  0  0  0  0  0  0  0  0  0  0  0
    0.5711   -8.6076   44.7924 C   0  0  0  0  0  0  0  0  0  0  0  0
    1.7565   -8.0410   45.5527 C   0  0  0  0  0  0  0  0  0  0  0  0
   -1.3772  -10.2549   44.9946 C   0  0  0  0  0  0  0  0  0  0  0  0
   -2.2237   -9.1496   44.4124 C   0  0  0  0  0  0  0  0  0  0  0  0
   -1.9743   -8.6055   43.2014 N   0  0  0  0  0  0  0  0  0  0  0  0
   -2.8972   -7.6754   42.9741 N   0  0  0  0  0  0  0  0  0  0  0  0
   -3.6989   -7.6741   44.0520 C   0  0  0  0  0  0  0  0  0  0  0  0
   -4.8165   -6.8671   44.2676 C   0  0  0  0  0  0  0  0  0  0  0  0
   -5.5012   -7.0300   45.4344 N   0  0  0  0  0  0  0  0  0  0  0  0
   -5.1093   -7.9539   46.3676 C   0  0  0  0  0  0  0  0  0  0  0  0
   -3.9785   -8.7616   46.1361 C   0  0  0  0  0  0  0  0  0  0  0  0
   -3.3163   -8.5779   44.9650 N   0  0  0  0  0  0  0  0  0  0  0  0
   10.3569   -6.3779   47.7945 C   0  0  0  0  0  0  0  0  0  0  0  0
    9.0173   -5.6891   47.6188 C   0  0  0  0  0  0  0  0  0  0  0  0
    9.1244   -4.6640   46.5872 N   0  0  0  0  0  0  0  0  0  0  0  0
    9.8929   -4.7000   45.9729 H   0  0  0  0  0  0  0  0  0  0  0  0
    8.1721   -3.6076   46.4195 C   0  0  0  0  0  0  0  0  0  0  0  0
    8.2701   -2.7693   45.3057 C   0  0  0  0  0  0  0  0  0  0  0  0
    7.3384   -1.7461   45.1105 C   0  0  0  0  0  0  0  0  0  0  0  0
    6.2967   -1.5428   46.0308 C   0  0  0  0  0  0  0  0  0  0  0  0
    6.2076   -2.3850   47.1506 C   0  0  0  0  0  0  0  0  0  0  0  0
    7.1370   -3.4086   47.3440 C   0  0  0  0  0  0  0  0  0  0  0  0
    5.3274   -0.4989   45.8233 N   0  0  0  0  0  0  0  0  0  0  0  0
    5.3814    0.3531   44.6366 C   0  0  0  0  0  0  0  0  0  0  0  0
    3.9688    0.5589   44.0958 C   0  0  0  0  0  0  0  0  0  0  0  0
    3.0922    1.0601   45.1595 N   0  0  0  0  0  0  0  0  0  0  0  0
    2.9914    0.0702   46.2341 C   0  0  0  0  0  0  0  0  0  0  0  0
    4.3614   -0.1543   46.8655 C   0  0  0  0  0  0  0  0  0  0  0  0
    3.4945    1.9193   45.5343 H   0  0  0  0  0  0  0  0  0  0  0  0
    1.7560    1.3629   44.6266 C   0  0  0  0  0  0  0  0  0  0  0  0
    1.1005    0.2240   43.8907 C   0  0  0  0  0  0  0  0  0  0  0  0
    0.6085   -0.8923   44.5796 C   0  0  0  0  0  0  0  0  0  0  0  0
   -0.0273   -1.9243   43.8824 C   0  0  0  0  0  0  0  0  0  0  0  0
   -0.1814   -1.8394   42.4955 C   0  0  0  0  0  0  0  0  0  0  0  0
    0.2967   -0.7208   41.8066 C   0  0  0  0  0  0  0  0  0  0  0  0
    0.9326    0.3110   42.5043 C   0  0  0  0  0  0  0  0  0  0  0  0
 27 26  1  0  0  0
 27 28  1  0  0  0
 28 30  1  0  0  0
 30 31  2  0  0  0
 31 32  1  0  0  0
 32 33  2  0  0  0
 33 36  1  0  0  0
 36 37  1  0  0  0
 37 38  1  0  0  0
 38 39  1  0  0  0
 39 43  1  0  0  0
 43 44  1  0  0  0
 44 45  2  0  0  0
 45 46  1  0  0  0
 46 47  2  0  0  0
 47 48  1  0  0  0
 48 49  2  0  0  0
 39 40  1  0  0  0
 40 41  1  0  0  0
 33 34  1  0  0  0
 34 35  2  0  0  0
 27  1  1  0  0  0
  1  2  2  0  0  0
  1  3  1  0  0  0
  3  5  1  0  0  0
  5  6  2  0  0  0
  6  7  1  0  0  0
  7  8  2  0  0  0
  8 10  1  0  0  0
 10 11  1  0  0  0
 11 12  1  0  0  0
 12 13  1  0  0  0
 13 16  1  0  0  0
 16 17  1  0  0  0
 17 18  2  0  0  0
 18 19  1  0  0  0
 19 20  2  0  0  0
 20 21  1  0  0  0
 21 22  2  0  0  0
 22 23  1  0  0  0
 23 24  2  0  0  0
 24 25  1  0  0  0
 13 14  1  0  0  0
 14 15  1  0  0  0
  8  9  1  0  0  0
 35 30  1  0  0  0
  9  5  1  0  0  0
 41 36  1  0  0  0
 15 10  1  0  0  0
 49 44  1  0  0  0
 25 17  1  0  0  0
 25 20  1  0  0  0
 28 29  1  0  0  0
 39 42  1  0  0  0
  3  4  1  0  0  0
M  CHG 1  39   1
M  END
>  <CNNaffinity>
8.81652

>  <CNNscore>
0.678182

>  <minimizedAffinity>
-1.64195

>  <minimizedRMSD>
1.52118

>  <molecular weight>
601.515

$$$$



 46 53  0  0  0  0  0  0  0  0999 V2000
    8.0931   -7.6147   46.1666 O   0  0  0  0  0  0  0  0  0  0  0  0
    7.9434   -6.7112   47.0346 C   0  0  0  0  0  0  0  0  0  0  0  0
    6.7509   -6.6182   47.7973 N   0  0  0  0  0  0  0  0  0  0  0  0
    6.7125   -5.9556   48.5245 H   0  0  0  0  0  0  0  0  0  0  0  0
    5.6175   -7.4253   47.5681 C   0  0  0  0  0  0  0  0  0  0  0  0
    5.2305   -8.3956   48.4150 N   0  0  0  0  0  0  0  0  0  0  0  0
    4.1494   -9.0382   47.9865 N   0  0  0  0  0  0  0  0  0  0  0  0
    3.6921   -8.5628   46.8083 C   0  0  0  0  0  0  0  0  0  0  0  0
    4.6155   -7.2739   46.2315 S   0  0  0  0  0  0  0  0  0  0  0  0
    2.5503   -9.0891   46.1401 N   0  0  0  0  0  0  0  0  0  0  0  0
    2.1650  -10.4817   46.4231 C   0  0  0  0  0  0  0  0  0  0  0  0
    0.9016  -10.9368   45.6888 C   0  0  0  0  0  0  0  0  0  0  0  0
   -0.1104   -9.8030   45.6148 C   0  0  0  0  0  0  0  0  0  0  0  0
    0.5137   -8.7338   44.7355 C   0  0  0  0  0  0  0  0  0  0  0  0
    1.7069   -8.1128   45.4388 C   0  0  0  0  0  0  0  0  0  0  0  0
   -1.4719  -10.3069   45.1011 C   0  0  0  0  0  0  0  0  0  0  0  0
   -2.2962   -9.2506   44.4069 C   0  0  0  0  0  0  0  0  0  0  0  0
   -2.0313   -8.8331   43.1498 N   0  0  0  0  0  0  0  0  0  0  0  0
   -2.9369   -7.9151   42.8253 N   0  0  0  0  0  0  0  0  0  0  0  0
   -3.7440   -7.7938   43.8923 C   0  0  0  0  0  0  0  0  0  0  0  0
   -4.8486   -6.9510   44.0196 C   0  0  0  0  0  0  0  0  0  0  0  0
   -5.5420   -6.9862   45.1921 N   0  0  0  0  0  0  0  0  0  0  0  0
   -5.1707   -7.8196   46.2147 C   0  0  0  0  0  0  0  0  0  0  0  0
   -4.0529   -8.6649   46.0718 C   0  0  0  0  0  0  0  0  0  0  0  0
   -3.3816   -8.6089   44.8928 N   0  0  0  0  0  0  0  0  0  0  0  0
    9.0106   -5.7015   47.3114 C   0  0  0  0  0  0  0  0  0  0  0  0
   10.4013   -6.1330   46.9443 C   0  0  0  0  0  0  0  0  0  0  0  0
   11.2950   -6.4750   47.9653 C   0  0  0  0  0  0  0  0  0  0  0  0
   12.5946   -6.8874   47.6555 C   0  0  0  0  0  0  0  0  0  0  0  0
   13.0053   -6.9613   46.3214 C   0  0  0  0  0  0  0  0  0  0  0  0
   12.1166   -6.6237   45.2970 C   0  0  0  0  0  0  0  0  0  0  0  0
   10.8174   -6.2115   45.6072 C   0  0  0  0  0  0  0  0  0  0  0  0
    8.6833   -4.3957   46.8271 O   0  0  0  0  0  0  0  0  0  0  0  0
    8.3473   -4.0893   45.4990 C   0  0  0  0  0  0  0  0  0  0  0  0
    8.2458   -5.0046   44.6357 O   0  0  0  0  0  0  0  0  0  0  0  0
    8.0136   -2.6725   45.1270 C   0  0  0  0  0  0  0  0  0  0  0  0
    6.4969   -2.4563   45.2790 C   0  0  0  0  0  0  0  0  0  0  0  0
    6.1254   -1.0120   44.9078 C   0  0  0  0  0  0  0  0  0  0  0  0
    6.5382   -0.7413   43.4519 C   0  0  0  0  0  0  0  0  0  0  0  0
    8.0542   -0.9375   43.2894 C   0  0  0  0  0  0  0  0  0  0  0  0
    8.7936    0.0325   44.2242 C   0  0  0  0  0  0  0  0  0  0  0  0
    8.3911   -0.2382   45.6821 C   0  0  0  0  0  0  0  0  0  0  0  0
    9.2505    0.8853   46.7577 Cl  0  0  0  0  0  0  0  0  0  0  0  0
    6.8746   -0.0427   45.8358 C   0  0  0  0  0  0  0  0  0  0  0  0
    8.7567   -1.6847   46.0490 C   0  0  0  0  0  0  0  0  0  0  0  0
    8.4214   -2.3813   43.6673 C   0  0  0  0  0  0  0  0  0  0  0  0
  1  2  2  0  0  0
  2  3  1  0  0  0
  3  5  1  0  0  0
  5  6  2  0  0  0
  6  7  1  0  0  0
  7  8  2  0  0  0
  8 10  1  0  0  0
 10 11  1  0  0  0
 11 12  1  0  0  0
 12 13  1  0  0  0
 13 16  1  0  0  0
 16 17  1  0  0  0
 17 18  2  0  0  0
 18 19  1  0  0  0
 19 20  2  0  0  0
 20 21  1  0  0  0
 21 22  2  0  0  0
 22 23  1  0  0  0
 23 24  2  0  0  0
 24 25  1  0  0  0
 13 14  1  0  0  0
 14 15  1  0  0  0
  8  9  1  0  0  0
 26  2  1  0  0  0
 26 33  1  0  0  0
 33 34  1  0  0  0
 34 35  2  0  0  0
 34 36  1  0  0  0
 36 37  1  0  0  0
 38 37  1  0  0  0
 38 39  1  0  0  0
 40 39  1  0  0  0
 40 41  1  0  0  0
 41 42  1  0  0  0
 42 43  1  0  0  0
 42 44  1  0  0  0
 42 45  1  0  0  0
 40 46  1  0  0  0
 26 27  1  0  0  0
 27 28  2  0  0  0
 28 29  1  0  0  0
 29 30  2  0  0  0
 30 31  1  0  0  0
 31 32  2  0  0  0
  9  5  1  0  0  0
 45 36  1  0  0  0
 32 27  1  0  0  0
 15 10  1  0  0  0
 46 36  1  0  0  0
 25 17  1  0  0  0
 44 38  1  0  0  0
 25 20  1  0  0  0
  3  4  1  0  0  0
M  END
>  <CNNaffinity>
8.79143

>  <CNNscore>
0.155053

>  <minimizedAffinity>
8.93959

>  <minimizedRMSD>
0.28393

>  <molecular weight>
612.92

$$$$



 37 43  0  0  0  0  0  0  0  0999 V2000
    5.8132   -7.1713   47.5104 C   0  0  0  0  0  0  0  0  0  0  0  0
    5.6106   -8.2689   48.2602 N   0  0  0  0  0  0  0  0  0  0  0  0
    4.5711   -8.9818   47.8409 N   0  0  0  0  0  0  0  0  0  0  0  0
    3.9613   -8.4343   46.7677 C   0  0  0  0  0  0  0  0  0  0  0  0
    4.6849   -6.9893   46.2829 S   0  0  0  0  0  0  0  0  0  0  0  0
    2.8274   -9.0128   46.1302 N   0  0  0  0  0  0  0  0  0  0  0  0
    2.6502  -10.4714   46.2265 C   0  0  0  0  0  0  0  0  0  0  0  0
    1.3802  -10.9879   45.5460 C   0  0  0  0  0  0  0  0  0  0  0  0
    0.2341  -10.0061   45.7398 C   0  0  0  0  0  0  0  0  0  0  0  0
    0.6218   -8.7467   44.9853 C   0  0  0  0  0  0  0  0  0  0  0  0
    1.7986   -8.0729   45.6672 C   0  0  0  0  0  0  0  0  0  0  0  0
   -1.1025  -10.6153   45.2775 C   0  0  0  0  0  0  0  0  0  0  0  0
   -2.1301   -9.5941   44.8552 C   0  0  0  0  0  0  0  0  0  0  0  0
   -2.0634   -8.9431   43.6735 N   0  0  0  0  0  0  0  0  0  0  0  0
   -3.1120   -8.1289   43.5964 N   0  0  0  0  0  0  0  0  0  0  0  0
   -3.8045   -8.3038   44.7342 C   0  0  0  0  0  0  0  0  0  0  0  0
   -4.9892   -7.6661   45.1038 C   0  0  0  0  0  0  0  0  0  0  0  0
   -5.5375   -7.9941   46.3076 N   0  0  0  0  0  0  0  0  0  0  0  0
   -4.9489   -8.9183   47.1305 C   0  0  0  0  0  0  0  0  0  0  0  0
   -3.7526   -9.5540   46.7438 C   0  0  0  0  0  0  0  0  0  0  0  0
   -3.2296   -9.2081   45.5394 N   0  0  0  0  0  0  0  0  0  0  0  0
    8.0453   -6.7304   45.7845 O   0  0  0  0  0  0  0  0  0  0  0  0
    7.9240   -6.0381   46.8309 C   0  0  0  0  0  0  0  0  0  0  0  0
    6.8682   -6.2675   47.7499 N   0  0  0  0  0  0  0  0  0  0  0  0
    6.8724   -5.7695   48.5992 H   0  0  0  0  0  0  0  0  0  0  0  0
    8.9047   -4.9641   47.1569 C   0  0  0  0  0  0  0  0  0  0  0  0
    8.4753   -3.5823   46.6583 C   0  0  0  0  0  0  0  0  0  0  0  0
    8.3117   -3.5801   45.1244 C   0  0  0  0  0  0  0  0  0  0  0  0
    7.9106   -2.1795   44.6358 C   0  0  0  0  0  0  0  0  0  0  0  0
    9.0067   -1.1762   45.0287 C   0  0  0  0  0  0  0  0  0  0  0  0
    9.1793   -1.1589   46.5559 C   0  0  0  0  0  0  0  0  0  0  0  0
    7.8505   -0.7477   47.2094 C   0  0  0  0  0  0  0  0  0  0  0  0
    6.7493   -1.7493   46.8284 C   0  0  0  0  0  0  0  0  0  0  0  0
    5.0816   -1.2285   47.6529 Br  0  0  0  0  0  0  0  0  0  0  0  0
    6.5861   -1.7705   45.3001 C   0  0  0  0  0  0  0  0  0  0  0  0
    7.1498   -3.1490   47.3171 C   0  0  0  0  0  0  0  0  0  0  0  0
    9.5674   -2.5669   47.0380 C   0  0  0  0  0  0  0  0  0  0  0  0
 22 23  2  0  0  0
 23 26  1  0  0  0
 26 27  1  0  0  0
 27 28  1  0  0  0
 29 28  1  0  0  0
 29 30  1  0  0  0
 31 30  1  0  0  0
 31 32  1  0  0  0
 32 33  1  0  0  0
 33 34  1  0  0  0
 33 35  1  0  0  0
 33 36  1  0  0  0
 31 37  1  0  0  0
 23 24  1  0  0  0
 24  1  1  0  0  0
  1  2  2  0  0  0
  2  3  1  0  0  0
  3  4  2  0  0  0
  4  6  1  0  0  0
  6  7  1  0  0  0
  7  8  1  0  0  0
  8  9  1  0  0  0
  9 12  1  0  0  0
 12 13  1  0  0  0
 13 14  2  0  0  0
 14 15  1  0  0  0
 15 16  2  0  0  0
 16 17  1  0  0  0
 17 18  2  0  0  0
 18 19  1  0  0  0
 19 20  2  0  0  0
 20 21  1  0  0  0
  9 10  1  0  0  0
 10 11  1  0  0  0
  4  5  1  0  0  0
 36 27  1  0  0  0
  5  1  1  0  0  0
 37 27  1  0  0  0
 11  6  1  0  0  0
 35 29  1  0  0  0
 21 13  1  0  0  0
 21 16  1  0  0  0
 24 25  1  0  0  0
M  END
>  <CNNaffinity>
8.78784

>  <CNNscore>
0.638598

>  <minimizedAffinity>
1.7234

>  <minimizedRMSD>
0.7888

>  <molecular weight>
541.297

$$$$



 42 46  0  0  0  0  0  0  0  0999 V2000
    8.0528   -6.8290   47.1807 C   0  0  0  0  0  0  0  0  0  0  0  0
    8.2182   -7.7703   46.3589 O   0  0  0  0  0  0  0  0  0  0  0  0
    6.8558   -6.7165   47.9361 N   0  0  0  0  0  0  0  0  0  0  0  0
    6.8165   -6.0385   48.6488 H   0  0  0  0  0  0  0  0  0  0  0  0
    5.7213   -7.5234   47.7203 C   0  0  0  0  0  0  0  0  0  0  0  0
    5.3163   -8.4583   48.5973 N   0  0  0  0  0  0  0  0  0  0  0  0
    4.2349   -9.1068   48.1793 N   0  0  0  0  0  0  0  0  0  0  0  0
    3.7959   -8.6701   46.9793 C   0  0  0  0  0  0  0  0  0  0  0  0
    4.7368   -7.4110   46.3675 S   0  0  0  0  0  0  0  0  0  0  0  0
    2.6574   -9.2102   46.3173 N   0  0  0  0  0  0  0  0  0  0  0  0
    2.2579  -10.5889   46.6446 C   0  0  0  0  0  0  0  0  0  0  0  0
    0.9990  -11.0597   45.9127 C   0  0  0  0  0  0  0  0  0  0  0  0
   -0.0028   -9.9212   45.7881 C   0  0  0  0  0  0  0  0  0  0  0  0
    0.6393   -8.8884   44.8788 C   0  0  0  0  0  0  0  0  0  0  0  0
    1.8297   -8.2524   45.5730 C   0  0  0  0  0  0  0  0  0  0  0  0
   -1.3627  -10.4323   45.2773 C   0  0  0  0  0  0  0  0  0  0  0  0
   -2.1706   -9.3948   44.5371 C   0  0  0  0  0  0  0  0  0  0  0  0
   -1.8890   -9.0250   43.2686 N   0  0  0  0  0  0  0  0  0  0  0  0
   -2.7832   -8.1118   42.9019 N   0  0  0  0  0  0  0  0  0  0  0  0
   -3.6003   -7.9457   43.9552 C   0  0  0  0  0  0  0  0  0  0  0  0
   -4.6990   -7.0899   44.0404 C   0  0  0  0  0  0  0  0  0  0  0  0
   -5.4048   -7.0774   45.2060 N   0  0  0  0  0  0  0  0  0  0  0  0
   -5.0514   -7.8765   46.2616 C   0  0  0  0  0  0  0  0  0  0  0  0
   -3.9393   -8.7355   46.1611 C   0  0  0  0  0  0  0  0  0  0  0  0
   -3.2554   -8.7273   44.9880 N   0  0  0  0  0  0  0  0  0  0  0  0
    9.1500   -5.8433   47.4333 C   0  0  0  0  0  0  0  0  0  0  0  0
    9.7262   -6.7954   49.6890 C   0  0  0  0  0  0  0  0  0  0  0  0
    9.4137   -5.5276   48.9138 C   0  0  0  0  0  0  0  0  0  0  0  0
   10.5877   -4.5759   49.0594 C   0  0  0  0  0  0  0  0  0  0  0  0
    9.0571   -4.6489   46.5810 N   0  0  0  0  0  0  0  0  0  0  0  0
    9.0736   -4.9458   45.6053 H   0  0  0  0  0  0  0  0  0  0  0  0
    7.6086   -3.7166   46.8505 S   0  0  0  0  0  0  0  0  0  0  0  0
    7.2806   -3.6408   48.3158 O   0  0  0  0  0  0  0  0  0  0  0  0
    6.4648   -4.3408   46.1016 O   0  0  0  0  0  0  0  0  0  0  0  0
    7.8779   -2.0988   46.2400 C   0  0  0  0  0  0  0  0  0  0  0  0
    6.8952   -1.2049   46.2511 C   0  0  0  0  0  0  0  0  0  0  0  0
    7.0639    0.1666   45.7519 C   0  0  0  0  0  0  0  0  0  0  0  0
    8.2865    0.6179   45.2286 C   0  0  0  0  0  0  0  0  0  0  0  0
    8.4114    1.9298   44.7622 C   0  0  0  0  0  0  0  0  0  0  0  0
    7.3169    2.7973   44.8159 C   0  0  0  0  0  0  0  0  0  0  0  0
    6.0977    2.3530   45.3358 C   0  0  0  0  0  0  0  0  0  0  0  0
    5.9726    1.0409   45.8023 C   0  0  0  0  0  0  0  0  0  0  0  0
 27 28  1  0  0  0
 28 29  1  0  0  0
 26 28  1  0  0  0
 26 30  1  0  0  0
 30 32  1  0  0  0
 32 33  2  0  0  0
 32 34  2  0  0  0
 32 35  1  0  0  0
 35 36  2  0  0  0
 36 37  1  0  0  0
 37 38  2  0  0  0
 38 39  1  0  0  0
 39 40  2  0  0  0
 40 41  1  0  0  0
 41 42  2  0  0  0
 26  1  1  0  0  0
  1  2  2  0  0  0
  1  3  1  0  0  0
  3  5  1  0  0  0
  5  6  2  0  0  0
  6  7  1  0  0  0
  7  8  2  0  0  0
  8 10  1  0  0  0
 10 11  1  0  0  0
 11 12  1  0  0  0
 12 13  1  0  0  0
 13 16  1  0  0  0
 16 17  1  0  0  0
 17 18  2  0  0  0
 18 19  1  0  0  0
 19 20  2  0  0  0
 20 21  1  0  0  0
 21 22  2  0  0  0
 22 23  1  0  0  0
 23 24  2  0  0  0
 24 25  1  0  0  0
 13 14  1  0  0  0
 14 15  1  0  0  0
  8  9  1  0  0  0
 42 37  1  0  0  0
  9  5  1  0  0  0
 15 10  1  0  0  0
 25 17  1  0  0  0
 25 20  1  0  0  0
 30 31  1  0  0  0
  3  4  1  0  0  0
M  END
>  <CNNaffinity>
8.7682

>  <CNNscore>
0.227861

>  <minimizedAffinity>
3.41866

>  <minimizedRMSD>
0.41543

>  <molecular weight>
552.483

$$$$



 45 49  0  0  0  0  0  0  0  0999 V2000
    8.1084   -6.4831   47.1875 C   0  0  0  0  0  0  0  0  0  0  0  0
    8.2815   -7.5151   46.4847 O   0  0  0  0  0  0  0  0  0  0  0  0
    6.8851   -6.2545   47.8710 N   0  0  0  0  0  0  0  0  0  0  0  0
    6.8325   -5.4905   48.4897 H   0  0  0  0  0  0  0  0  0  0  0  0
    5.7421   -7.0631   47.7106 C   0  0  0  0  0  0  0  0  0  0  0  0
    5.2894   -7.8821   48.6759 N   0  0  0  0  0  0  0  0  0  0  0  0
    4.2100   -8.5583   48.2987 N   0  0  0  0  0  0  0  0  0  0  0  0
    3.8197   -8.2591   47.0411 C   0  0  0  0  0  0  0  0  0  0  0  0
    4.8053   -7.0955   46.3197 S   0  0  0  0  0  0  0  0  0  0  0  0
    2.6935   -8.8559   46.4070 N   0  0  0  0  0  0  0  0  0  0  0  0
    2.2563  -10.1798   46.8798 C   0  0  0  0  0  0  0  0  0  0  0  0
    1.0134  -10.7142   46.1642 C   0  0  0  0  0  0  0  0  0  0  0  0
    0.0389   -9.5829   45.8713 C   0  0  0  0  0  0  0  0  0  0  0  0
    0.7310   -8.6748   44.8704 C   0  0  0  0  0  0  0  0  0  0  0  0
    1.9100   -7.9799   45.5268 C   0  0  0  0  0  0  0  0  0  0  0  0
   -1.3130  -10.1295   45.3764 C   0  0  0  0  0  0  0  0  0  0  0  0
   -2.0754   -9.1741   44.4915 C   0  0  0  0  0  0  0  0  0  0  0  0
   -1.7470   -8.9635   43.1981 N   0  0  0  0  0  0  0  0  0  0  0  0
   -2.6099   -8.0852   42.6960 N   0  0  0  0  0  0  0  0  0  0  0  0
   -3.4554   -7.7802   43.6943 C   0  0  0  0  0  0  0  0  0  0  0  0
   -4.5378   -6.9014   43.6405 C   0  0  0  0  0  0  0  0  0  0  0  0
   -5.2789   -6.7373   44.7723 N   0  0  0  0  0  0  0  0  0  0  0  0
   -4.9753   -7.4105   45.9266 C   0  0  0  0  0  0  0  0  0  0  0  0
   -3.8792   -8.2947   45.9659 C   0  0  0  0  0  0  0  0  0  0  0  0
   -3.1594   -8.4387   44.8236 N   0  0  0  0  0  0  0  0  0  0  0  0
    9.2011   -5.4844   47.3488 C   0  0  0  0  0  0  0  0  0  0  0  0
    9.5488   -5.3187   48.8157 C   0  0  0  0  0  0  0  0  0  0  0  0
    8.8125   -4.2270   46.8056 O   0  0  0  0  0  0  0  0  0  0  0  0
    8.8024   -3.9735   45.4291 C   0  0  0  0  0  0  0  0  0  0  0  0
    9.1516   -4.8690   44.6128 O   0  0  0  0  0  0  0  0  0  0  0  0
    8.1210   -1.5958   45.9938 C   0  0  0  0  0  0  0  0  0  0  0  0
    8.3925   -2.6287   44.9057 C   0  0  0  0  0  0  0  0  0  0  0  0
    7.3076   -2.7228   43.9211 N   0  0  0  0  0  0  0  0  0  0  0  0
    7.5088   -3.4992   43.2910 H   0  0  0  0  0  0  0  0  0  0  0  0
    5.7411   -2.9870   44.6429 S   0  0  0  0  0  0  0  0  0  0  0  0
    4.9089   -3.8099   43.7007 O   0  0  0  0  0  0  0  0  0  0  0  0
    5.8630   -3.7056   45.9571 O   0  0  0  0  0  0  0  0  0  0  0  0
    4.9623   -1.4394   44.8962 C   0  0  0  0  0  0  0  0  0  0  0  0
    3.7362   -1.3810   45.4039 C   0  0  0  0  0  0  0  0  0  0  0  0
    3.0344   -0.1121   45.6398 C   0  0  0  0  0  0  0  0  0  0  0  0
    1.7428   -0.1463   46.1765 C   0  0  0  0  0  0  0  0  0  0  0  0
    1.0460    1.0425   46.4144 C   0  0  0  0  0  0  0  0  0  0  0  0
    1.6390    2.2726   46.1160 C   0  0  0  0  0  0  0  0  0  0  0  0
    2.9291    2.3147   45.5798 C   0  0  0  0  0  0  0  0  0  0  0  0
    3.6260    1.1264   45.3419 C   0  0  0  0  0  0  0  0  0  0  0  0
 32 31  1  0  0  0
 32 33  1  0  0  0
 33 35  1  0  0  0
 35 36  2  0  0  0
 35 37  2  0  0  0
 35 38  1  0  0  0
 38 39  2  0  0  0
 39 40  1  0  0  0
 40 41  2  0  0  0
 41 42  1  0  0  0
 42 43  2  0  0  0
 43 44  1  0  0  0
 44 45  2  0  0  0
 32 29  1  0  0  0
 29 30  2  0  0  0
 29 28  1  0  0  0
 26 28  1  0  0  0
 26 27  1  0  0  0
 26  1  1  0  0  0
  1  2  2  0  0  0
  1  3  1  0  0  0
  3  5  1  0  0  0
  5  6  2  0  0  0
  6  7  1  0  0  0
  7  8  2  0  0  0
  8 10  1  0  0  0
 10 11  1  0  0  0
 11 12  1  0  0  0
 12 13  1  0  0  0
 13 16  1  0  0  0
 16 17  1  0  0  0
 17 18  2  0  0  0
 18 19  1  0  0  0
 19 20  2  0  0  0
 20 21  1  0  0  0
 21 22  2  0  0  0
 22 23  1  0  0  0
 23 24  2  0  0  0
 24 25  1  0  0  0
 13 14  1  0  0  0
 14 15  1  0  0  0
  8  9  1  0  0  0
 45 40  1  0  0  0
  9  5  1  0  0  0
 15 10  1  0  0  0
 25 17  1  0  0  0
 25 20  1  0  0  0
 33 34  1  0  0  0
  3  4  1  0  0  0
M  END
>  <CNNaffinity>
8.76137

>  <CNNscore>
0.626616

>  <minimizedAffinity>
0.36043

>  <minimizedRMSD>
0.9571

>  <molecular weight>
596.492

$$$$



 43 48  0  0  0  0  0  0  0  0999 V2000
    8.1254   -7.5895   46.3023 O   0  0  0  0  0  0  0  0  0  0  0  0
    7.8894   -6.5488   46.9723 C   0  0  0  0  0  0  0  0  0  0  0  0
    6.6435   -6.3553   47.6236 N   0  0  0  0  0  0  0  0  0  0  0  0
    6.5482   -5.5829   48.2266 H   0  0  0  0  0  0  0  0  0  0  0  0
    5.5353   -7.2094   47.4537 C   0  0  0  0  0  0  0  0  0  0  0  0
    5.1027   -8.0388   48.4192 N   0  0  0  0  0  0  0  0  0  0  0  0
    4.0582   -8.7624   48.0322 N   0  0  0  0  0  0  0  0  0  0  0  0
    3.6744   -8.4900   46.7665 C   0  0  0  0  0  0  0  0  0  0  0  0
    4.6215   -7.2916   46.0494 S   0  0  0  0  0  0  0  0  0  0  0  0
    2.5843   -9.1396   46.1214 N   0  0  0  0  0  0  0  0  0  0  0  0
    2.2068  -10.4838   46.5894 C   0  0  0  0  0  0  0  0  0  0  0  0
    0.9974  -11.0764   45.8623 C   0  0  0  0  0  0  0  0  0  0  0  0
   -0.0277   -9.9929   45.5615 C   0  0  0  0  0  0  0  0  0  0  0  0
    0.6291   -9.0513   44.5676 C   0  0  0  0  0  0  0  0  0  0  0  0
    1.7674   -8.3012   45.2351 C   0  0  0  0  0  0  0  0  0  0  0  0
   -1.3473  -10.6031   45.0539 C   0  0  0  0  0  0  0  0  0  0  0  0
   -2.1530   -9.6797   44.1733 C   0  0  0  0  0  0  0  0  0  0  0  0
   -1.8293   -9.4408   42.8838 N   0  0  0  0  0  0  0  0  0  0  0  0
   -2.7332   -8.6029   42.3847 N   0  0  0  0  0  0  0  0  0  0  0  0
   -3.5980   -8.3504   43.3812 C   0  0  0  0  0  0  0  0  0  0  0  0
   -4.7234   -7.5271   43.3294 C   0  0  0  0  0  0  0  0  0  0  0  0
   -5.4775   -7.4113   44.4585 N   0  0  0  0  0  0  0  0  0  0  0  0
   -5.1457   -8.0788   45.6084 C   0  0  0  0  0  0  0  0  0  0  0  0
   -4.0064   -8.9065   45.6457 C   0  0  0  0  0  0  0  0  0  0  0  0
   -3.2744   -9.0034   44.5061 N   0  0  0  0  0  0  0  0  0  0  0  0
    8.9238   -5.4954   47.1358 C   0  0  0  0  0  0  0  0  0  0  0  0
    8.4424   -4.2715   46.5951 O   0  0  0  0  0  0  0  0  0  0  0  0
    8.4360   -4.0161   45.2208 C   0  0  0  0  0  0  0  0  0  0  0  0
    9.1466   -4.7012   44.4371 O   0  0  0  0  0  0  0  0  0  0  0  0
    7.5170   -2.9833   44.6613 C   0  0  0  0  0  0  0  0  0  0  0  0
    7.5955   -1.6716   45.4536 C   0  0  0  0  0  0  0  0  0  0  0  0
    6.6301   -1.6709   46.6397 C   0  0  0  0  0  0  0  0  0  0  0  0
    5.1982   -2.0556   46.2301 C   0  0  0  0  0  0  0  0  0  0  0  0
    5.1024   -2.5044   44.8359 N   0  0  0  0  0  0  0  0  0  0  0  0
    6.0946   -3.5531   44.6091 C   0  0  0  0  0  0  0  0  0  0  0  0
    3.5358   -3.2192   44.6233 S   0  0  0  0  0  0  0  0  0  0  0  0
    3.3231   -4.3146   45.6325 O   0  0  0  0  0  0  0  0  0  0  0  0
    3.4259   -3.8042   43.2428 O   0  0  0  0  0  0  0  0  0  0  0  0
    2.2948   -1.9970   44.8220 C   0  0  0  0  0  0  0  0  0  0  0  0
    1.9453   -1.0475   43.8788 C   0  0  0  0  0  0  0  0  0  0  0  0
    0.9303   -0.1924   44.3317 C   0  0  0  0  0  0  0  0  0  0  0  0
    0.4835   -0.4618   45.6244 C   0  0  0  0  0  0  0  0  0  0  0  0
    1.3660   -1.7754   46.1971 S   0  0  0  0  0  0  0  0  0  0  0  0
  1  2  2  0  0  0
  2 26  1  0  0  0
 26 27  1  0  0  0
 27 28  1  0  0  0
 28 29  2  0  0  0
 30 28  1  0  0  0
 30 31  1  0  0  0
 31 32  1  0  0  0
 32 33  1  0  0  0
 33 34  1  0  0  0
 34 36  1  0  0  0
 36 37  2  0  0  0
 36 38  2  0  0  0
 36 39  1  0  0  0
 39 40  2  0  0  0
 40 41  1  0  0  0
 41 42  2  0  0  0
 42 43  1  0  0  0
 34 35  1  0  0  0
  2  3  1  0  0  0
  3  5  1  0  0  0
  5  6  2  0  0  0
  6  7  1  0  0  0
  7  8  2  0  0  0
  8 10  1  0  0  0
 10 11  1  0  0  0
 11 12  1  0  0  0
 12 13  1  0  0  0
 13 16  1  0  0  0
 16 17  1  0  0  0
 17 18  2  0  0  0
 18 19  1  0  0  0
 19 20  2  0  0  0
 20 21  1  0  0  0
 21 22  2  0  0  0
 22 23  1  0  0  0
 23 24  2  0  0  0
 24 25  1  0  0  0
 13 14  1  0  0  0
 14 15  1  0  0  0
  8  9  1  0  0  0
 35 30  1  0  0  0
  9  5  1  0  0  0
 43 39  1  0  0  0
 15 10  1  0  0  0
 25 17  1  0  0  0
 25 20  1  0  0  0
  3  4  1  0  0  0
M  END
>  <CNNaffinity>
8.75367

>  <CNNscore>
0.684051

>  <minimizedAffinity>
3.86802

>  <minimizedRMSD>
0.97264

>  <molecular weight>
603.528

$$$$



 46 51  0  0  0  0  0  0  0  0999 V2000
    8.2435   -7.1040   46.4936 O   0  0  0  0  0  0  0  0  0  0  0  0
    7.9781   -6.2511   47.3829 C   0  0  0  0  0  0  0  0  0  0  0  0
    6.7412   -6.2682   48.0771 N   0  0  0  0  0  0  0  0  0  0  0  0
    6.6180   -5.6417   48.8265 H   0  0  0  0  0  0  0  0  0  0  0  0
    5.6790   -7.1357   47.7500 C   0  0  0  0  0  0  0  0  0  0  0  0
    5.3362   -8.1880   48.5138 N   0  0  0  0  0  0  0  0  0  0  0  0
    4.3192   -8.8731   48.0022 N   0  0  0  0  0  0  0  0  0  0  0  0
    3.8671   -8.3487   46.8428 C   0  0  0  0  0  0  0  0  0  0  0  0
    4.7126   -6.9607   46.3904 S   0  0  0  0  0  0  0  0  0  0  0  0
    2.7887   -8.9051   46.0982 N   0  0  0  0  0  0  0  0  0  0  0  0
    2.5064  -10.3411   46.2594 C   0  0  0  0  0  0  0  0  0  0  0  0
    1.3030  -10.8310   45.4503 C   0  0  0  0  0  0  0  0  0  0  0  0
    0.2077   -9.7751   45.4308 C   0  0  0  0  0  0  0  0  0  0  0  0
    0.7696   -8.5947   44.6584 C   0  0  0  0  0  0  0  0  0  0  0  0
    1.8907   -7.9429   45.4470 C   0  0  0  0  0  0  0  0  0  0  0  0
   -1.0956  -10.3385   44.8345 C   0  0  0  0  0  0  0  0  0  0  0  0
   -1.9867   -9.2941   44.2079 C   0  0  0  0  0  0  0  0  0  0  0  0
   -1.7248   -8.7458   43.0015 N   0  0  0  0  0  0  0  0  0  0  0  0
   -2.6950   -7.8784   42.7283 N   0  0  0  0  0  0  0  0  0  0  0  0
   -3.5369   -7.9187   43.7744 C   0  0  0  0  0  0  0  0  0  0  0  0
   -4.7109   -7.1826   43.9376 C   0  0  0  0  0  0  0  0  0  0  0  0
   -5.4293   -7.3787   45.0789 N   0  0  0  0  0  0  0  0  0  0  0  0
   -5.0166   -8.2676   46.0368 C   0  0  0  0  0  0  0  0  0  0  0  0
   -3.8288   -9.0037   45.8581 C   0  0  0  0  0  0  0  0  0  0  0  0
   -3.1341   -8.7883   44.7114 N   0  0  0  0  0  0  0  0  0  0  0  0
    8.9631   -5.2027   47.7528 C   0  0  0  0  0  0  0  0  0  0  0  0
    8.7331   -3.9603   46.9477 C   0  0  0  0  0  0  0  0  0  0  0  0
    9.4218   -3.7452   45.7417 C   0  0  0  0  0  0  0  0  0  0  0  0
   10.6069   -4.8890   45.1301 Cl  0  0  0  0  0  0  0  0  0  0  0  0
    9.1627   -2.5879   45.0064 C   0  0  0  0  0  0  0  0  0  0  0  0
    8.2562   -1.6806   45.4542 N   0  0  0  0  0  0  0  0  0  0  0  0
    7.5775   -1.8586   46.6208 C   0  0  0  0  0  0  0  0  0  0  0  0
    7.8002   -3.0087   47.3861 C   0  0  0  0  0  0  0  0  0  0  0  0
    7.1228   -3.1923   48.5486 F   0  0  0  0  0  0  0  0  0  0  0  0
    6.6365   -0.8794   47.0684 N   0  0  0  0  0  0  0  0  0  0  0  0
    6.0909   -1.0807   47.8628 H   0  0  0  0  0  0  0  0  0  0  0  0
    6.4482    0.4039   46.4016 C   0  0  0  0  0  0  0  0  0  0  0  0
    7.3807    1.4683   46.9805 C   0  0  0  0  0  0  0  0  0  0  0  0
    6.9997    2.7051   46.4923 F   0  0  0  0  0  0  0  0  0  0  0  0
    7.2511    1.4881   48.3600 F   0  0  0  0  0  0  0  0  0  0  0  0
    8.8088    1.2028   46.5932 C   0  0  0  0  0  0  0  0  0  0  0  0
    9.2136    1.3288   45.2569 C   0  0  0  0  0  0  0  0  0  0  0  0
   10.5388    1.0585   44.9131 C   0  0  0  0  0  0  0  0  0  0  0  0
   11.4463    0.6668   45.8979 C   0  0  0  0  0  0  0  0  0  0  0  0
   11.0110    0.5539   47.2196 C   0  0  0  0  0  0  0  0  0  0  0  0
    9.7158    0.8219   47.5366 N   0  0  0  0  0  0  0  0  0  0  0  0
  1  2  2  0  0  0
  2 26  1  0  0  0
 26 27  1  0  0  0
 27 28  2  0  0  0
 28 29  1  0  0  0
 28 30  1  0  0  0
 30 31  2  0  0  0
 31 32  1  0  0  0
 32 35  1  0  0  0
 35 37  1  0  0  0
 37 38  1  0  0  0
 38 39  1  0  0  0
 38 40  1  0  0  0
 38 41  1  0  0  0
 41 42  2  0  0  0
 42 43  1  0  0  0
 43 44  2  0  0  0
 44 45  1  0  0  0
 45 46  2  0  0  0
 32 33  2  0  0  0
 33 34  1  0  0  0
  2  3  1  0  0  0
  3  5  1  0  0  0
  5  6  2  0  0  0
  6  7  1  0  0  0
  7  8  2  0  0  0
  8 10  1  0  0  0
 10 11  1  0  0  0
 11 12  1  0  0  0
 12 13  1  0  0  0
 13 16  1  0  0  0
 16 17  1  0  0  0
 17 18  2  0  0  0
 18 19  1  0  0  0
 19 20  2  0  0  0
 20 21  1  0  0  0
 21 22  2  0  0  0
 22 23  1  0  0  0
 23 24  2  0  0  0
 24 25  1  0  0  0
 13 14  1  0  0  0
 14 15  1  0  0  0
  8  9  1  0  0  0
 33 27  1  0  0  0
  9  5  1  0  0  0
 46 41  1  0  0  0
 15 10  1  0  0  0
 25 17  1  0  0  0
 25 20  1  0  0  0
 35 36  1  0  0  0
  3  4  1  0  0  0
M  END
>  <CNNaffinity>
8.74812

>  <CNNscore>
0.101697

>  <minimizedAffinity>
9.82352

>  <minimizedRMSD>
0.39093

>  <molecular weight>
620.891

$$$$



 42 47  0  0  0  0  0  0  0  0999 V2000
    8.3636   -6.6851   46.8763 C   0  0  0  0  0  0  0  0  0  0  0  0
    8.4559   -7.4466   45.8749 O   0  0  0  0  0  0  0  0  0  0  0  0
    7.2595   -6.7646   47.7631 N   0  0  0  0  0  0  0  0  0  0  0  0
    7.2840   -6.2260   48.5869 H   0  0  0  0  0  0  0  0  0  0  0  0
    6.1289   -7.5732   47.5285 C   0  0  0  0  0  0  0  0  0  0  0  0
    5.8252   -8.6380   48.2911 N   0  0  0  0  0  0  0  0  0  0  0  0
    4.7295   -9.2624   47.8731 N   0  0  0  0  0  0  0  0  0  0  0  0
    4.1774   -8.6780   46.7883 C   0  0  0  0  0  0  0  0  0  0  0  0
    5.0279   -7.3084   46.2913 S   0  0  0  0  0  0  0  0  0  0  0  0
    3.0022   -9.1643   46.1486 N   0  0  0  0  0  0  0  0  0  0  0  0
    2.6786  -10.5935   46.2922 C   0  0  0  0  0  0  0  0  0  0  0  0
    1.3744  -11.0060   45.6053 C   0  0  0  0  0  0  0  0  0  0  0  0
    0.3293   -9.9087   45.7418 C   0  0  0  0  0  0  0  0  0  0  0  0
    0.8534   -8.7228   44.9512 C   0  0  0  0  0  0  0  0  0  0  0  0
    2.0805   -8.1447   45.6321 C   0  0  0  0  0  0  0  0  0  0  0  0
   -1.0539  -10.3987   45.2748 C   0  0  0  0  0  0  0  0  0  0  0  0
   -1.9390   -9.3074   44.7243 C   0  0  0  0  0  0  0  0  0  0  0  0
   -1.7670   -8.7871   43.4896 N   0  0  0  0  0  0  0  0  0  0  0  0
   -2.7057   -7.8642   43.3013 N   0  0  0  0  0  0  0  0  0  0  0  0
   -3.4392   -7.8433   44.4265 C   0  0  0  0  0  0  0  0  0  0  0  0
   -4.5444   -7.0350   44.6948 C   0  0  0  0  0  0  0  0  0  0  0  0
   -5.1551   -7.1761   45.9048 N   0  0  0  0  0  0  0  0  0  0  0  0
   -4.7026   -8.0800   46.8302 C   0  0  0  0  0  0  0  0  0  0  0  0
   -3.5853   -8.8893   46.5452 C   0  0  0  0  0  0  0  0  0  0  0  0
   -2.9974   -8.7275   45.3319 N   0  0  0  0  0  0  0  0  0  0  0  0
   10.7698   -6.3728   47.3014 C   0  0  0  0  0  0  0  0  0  0  0  0
    9.4223   -5.6862   47.1919 C   0  0  0  0  0  0  0  0  0  0  0  0
    9.4826   -4.6765   46.1866 O   0  0  0  0  0  0  0  0  0  0  0  0
    8.6135   -3.5770   46.1138 C   0  0  0  0  0  0  0  0  0  0  0  0
    8.6146   -2.8840   45.0621 O   0  0  0  0  0  0  0  0  0  0  0  0
    7.7104   -3.1993   47.2272 C   0  0  0  0  0  0  0  0  0  0  0  0
    8.1636   -3.3584   48.5452 C   0  0  0  0  0  0  0  0  0  0  0  0
    7.3769   -2.9602   49.6267 C   0  0  0  0  0  0  0  0  0  0  0  0
    6.1286   -2.3818   49.4035 C   0  0  0  0  0  0  0  0  0  0  0  0
    5.6653   -2.2067   48.0991 C   0  0  0  0  0  0  0  0  0  0  0  0
    6.4383   -2.6143   47.0018 C   0  0  0  0  0  0  0  0  0  0  0  0
    5.9113   -2.4291   45.6783 N   0  0  0  0  0  0  0  0  0  0  0  0
    5.1997   -1.2347   45.2635 C   0  0  0  0  0  0  0  0  0  0  0  0
    4.6422   -1.5315   43.8651 C   0  0  0  0  0  0  0  0  0  0  0  0
    4.8624   -3.0190   43.5871 C   0  0  0  0  0  0  0  0  0  0  0  0
    5.6536   -3.4645   44.7475 C   0  0  0  0  0  0  0  0  0  0  0  0
    6.0235   -4.6557   44.9153 O   0  0  0  0  0  0  0  0  0  0  0  0
 27 26  1  0  0  0
 27 28  1  0  0  0
 28 29  1  0  0  0
 29 30  2  0  0  0
 29 31  1  0  0  0
 31 32  2  0  0  0
 32 33  1  0  0  0
 33 34  2  0  0  0
 34 35  1  0  0  0
 35 36  2  0  0  0
 36 37  1  0  0  0
 37 38  1  0  0  0
 38 39  1  0  0  0
 39 40  1  0  0  0
 40 41  1  0  0  0
 41 42  2  0  0  0
 27  1  1  0  0  0
  1  2  2  0  0  0
  1  3  1  0  0  0
  3  5  1  0  0  0
  5  6  2  0  0  0
  6  7  1  0  0  0
  7  8  2  0  0  0
  8 10  1  0  0  0
 10 11  1  0  0  0
 11 12  1  0  0  0
 12 13  1  0  0  0
 13 16  1  0  0  0
 16 17  1  0  0  0
 17 18  2  0  0  0
 18 19  1  0  0  0
 19 20  2  0  0  0
 20 21  1  0  0  0
 21 22  2  0  0  0
 22 23  1  0  0  0
 23 24  2  0  0  0
 24 25  1  0  0  0
 13 14  1  0  0  0
 14 15  1  0  0  0
  8  9  1  0  0  0
 36 31  1  0  0  0
 41 37  1  0  0  0
  9  5  1  0  0  0
 15 10  1  0  0  0
 25 17  1  0  0  0
 25 20  1  0  0  0
  3  4  1  0  0  0
M  END
>  <CNNaffinity>
8.69424

>  <CNNscore>
0.92873

>  <minimizedAffinity>
2.38943

>  <minimizedRMSD>
1.18884

>  <molecular weight>
547.42

$$$$
