


 39 44  0  0  0  0  0  0  0  0999 V2000
    5.7614   -7.3100   47.3820 C   0  0  0  0  0  0  0  0  0  0  0  0
    5.2989   -8.2224   48.2542 N   0  0  0  0  0  0  0  0  0  0  0  0
    4.1430   -8.7502   47.8670 N   0  0  0  0  0  0  0  0  0  0  0  0
    3.7029   -8.2415   46.6963 C   0  0  0  0  0  0  0  0  0  0  0  0
    4.7415   -7.0683   46.0728 S   0  0  0  0  0  0  0  0  0  0  0  0
    2.4909   -8.6487   46.0710 N   0  0  0  0  0  0  0  0  0  0  0  0
    2.1245  -10.0730   46.1390 C   0  0  0  0  0  0  0  0  0  0  0  0
    0.7853  -10.4008   45.4747 C   0  0  0  0  0  0  0  0  0  0  0  0
   -0.2175   -9.2823   45.7156 C   0  0  0  0  0  0  0  0  0  0  0  0
    0.3187   -8.0658   44.9817 C   0  0  0  0  0  0  0  0  0  0  0  0
    1.5866   -7.5699   45.6528 C   0  0  0  0  0  0  0  0  0  0  0  0
   -1.6310   -9.6992   45.2690 C   0  0  0  0  0  0  0  0  0  0  0  0
   -2.2587   -8.7647   44.2642 C   0  0  0  0  0  0  0  0  0  0  0  0
   -1.7494   -8.5811   43.0267 N   0  0  0  0  0  0  0  0  0  0  0  0
   -2.5311   -7.7157   42.3879 N   0  0  0  0  0  0  0  0  0  0  0  0
   -3.5098   -7.3911   43.2491 C   0  0  0  0  0  0  0  0  0  0  0  0
   -4.5727   -6.5159   43.0229 C   0  0  0  0  0  0  0  0  0  0  0  0
   -5.4673   -6.3293   44.0337 N   0  0  0  0  0  0  0  0  0  0  0  0
   -5.3317   -6.9769   45.2338 C   0  0  0  0  0  0  0  0  0  0  0  0
   -4.2531   -7.8577   45.4477 C   0  0  0  0  0  0  0  0  0  0  0  0
   -3.3782   -8.0247   44.4228 N   0  0  0  0  0  0  0  0  0  0  0  0
    8.3691   -8.4032   46.9949 O   0  0  0  0  0  0  0  0  0  0  0  0
    8.2496   -7.1790   47.2717 C   0  0  0  0  0  0  0  0  0  0  0  0
    6.9779   -6.6243   47.5712 N   0  0  0  0  0  0  0  0  0  0  0  0
    6.9438   -5.7087   47.9315 H   0  0  0  0  0  0  0  0  0  0  0  0
    9.4452   -6.3405   47.4204 C   0  0  0  0  0  0  0  0  0  0  0  0
    9.4952   -5.0072   47.5300 C   0  0  0  0  0  0  0  0  0  0  0  0
    8.3751   -4.0637   47.3888 C   0  0  0  0  0  0  0  0  0  0  0  0
    8.0292   -3.1274   48.3429 C   0  0  0  0  0  0  0  0  0  0  0  0
    6.9565   -2.4334   47.8063 C   0  0  0  0  0  0  0  0  0  0  0  0
    6.7401   -2.9966   46.5599 C   0  0  0  0  0  0  0  0  0  0  0  0
    7.6019   -3.9579   46.3371 O   0  0  0  0  0  0  0  0  0  0  0  0
    5.6974   -2.5935   45.6030 C   0  0  0  0  0  0  0  0  0  0  0  0
    5.1251   -1.3141   45.6613 C   0  0  0  0  0  0  0  0  0  0  0  0
    4.1275   -0.9458   44.7534 C   0  0  0  0  0  0  0  0  0  0  0  0
    3.6966   -1.8540   43.7822 C   0  0  0  0  0  0  0  0  0  0  0  0
    2.4450   -1.3958   42.6480 Cl  0  0  0  0  0  0  0  0  0  0  0  0
    4.2645   -3.1290   43.7168 C   0  0  0  0  0  0  0  0  0  0  0  0
    5.2620   -3.4960   44.6243 C   0  0  0  0  0  0  0  0  0  0  0  0
 22 23  2  0  0  0
 23 26  1  0  0  0
 26 27  2  0  0  0
 27 28  1  0  0  0
 28 29  2  0  0  0
 29 30  1  0  0  0
 30 31  2  0  0  0
 31 33  1  0  0  0
 33 34  2  0  0  0
 34 35  1  0  0  0
 35 36  2  0  0  0
 36 37  1  0  0  0
 36 38  1  0  0  0
 38 39  2  0  0  0
 31 32  1  0  0  0
 23 24  1  0  0  0
 24  1  1  0  0  0
  1  2  2  0  0  0
  2  3  1  0  0  0
  3  4  2  0  0  0
  4  6  1  0  0  0
  6  7  1  0  0  0
  7  8  1  0  0  0
  8  9  1  0  0  0
  9 12  1  0  0  0
 12 13  1  0  0  0
 13 14  2  0  0  0
 14 15  1  0  0  0
 15 16  2  0  0  0
 16 17  1  0  0  0
 17 18  2  0  0  0
 18 19  1  0  0  0
 19 20  2  0  0  0
 20 21  1  0  0  0
  9 10  1  0  0  0
 10 11  1  0  0  0
  4  5  1  0  0  0
 32 28  1  0  0  0
  5  1  1  0  0  0
 39 33  1  0  0  0
 11  6  1  0  0  0
 21 13  1  0  0  0
 21 16  1  0  0  0
 24 25  1  0  0  0
M  END
>  <minimizedAffinity>
-10.3097

>  <minimizedRMSD>
1.46578

>  <molecular weight>
524.857

$$$$



 39 44  0  0  0  0  0  0  0  0999 V2000
    5.7614   -7.3100   47.3820 C   0  0  0  0  0  0  0  0  0  0  0  0
    5.2989   -8.2224   48.2542 N   0  0  0  0  0  0  0  0  0  0  0  0
    4.1430   -8.7502   47.8670 N   0  0  0  0  0  0  0  0  0  0  0  0
    3.7029   -8.2415   46.6963 C   0  0  0  0  0  0  0  0  0  0  0  0
    4.7415   -7.0683   46.0728 S   0  0  0  0  0  0  0  0  0  0  0  0
    2.4909   -8.6487   46.0710 N   0  0  0  0  0  0  0  0  0  0  0  0
    2.1245  -10.0730   46.1390 C   0  0  0  0  0  0  0  0  0  0  0  0
    0.7853  -10.4008   45.4747 C   0  0  0  0  0  0  0  0  0  0  0  0
   -0.2175   -9.2823   45.7156 C   0  0  0  0  0  0  0  0  0  0  0  0
    0.3187   -8.0658   44.9817 C   0  0  0  0  0  0  0  0  0  0  0  0
    1.5866   -7.5699   45.6528 C   0  0  0  0  0  0  0  0  0  0  0  0
   -1.6310   -9.6992   45.2690 C   0  0  0  0  0  0  0  0  0  0  0  0
   -2.2587   -8.7647   44.2642 C   0  0  0  0  0  0  0  0  0  0  0  0
   -1.7494   -8.5811   43.0267 N   0  0  0  0  0  0  0  0  0  0  0  0
   -2.5311   -7.7157   42.3879 N   0  0  0  0  0  0  0  0  0  0  0  0
   -3.5098   -7.3911   43.2491 C   0  0  0  0  0  0  0  0  0  0  0  0
   -4.5727   -6.5159   43.0229 C   0  0  0  0  0  0  0  0  0  0  0  0
   -5.4673   -6.3293   44.0337 N   0  0  0  0  0  0  0  0  0  0  0  0
   -5.3317   -6.9769   45.2338 C   0  0  0  0  0  0  0  0  0  0  0  0
   -4.2531   -7.8577   45.4477 C   0  0  0  0  0  0  0  0  0  0  0  0
   -3.3782   -8.0247   44.4228 N   0  0  0  0  0  0  0  0  0  0  0  0
    8.3691   -8.4032   46.9949 O   0  0  0  0  0  0  0  0  0  0  0  0
    8.2496   -7.1790   47.2717 C   0  0  0  0  0  0  0  0  0  0  0  0
    6.9779   -6.6243   47.5712 N   0  0  0  0  0  0  0  0  0  0  0  0
    6.9438   -5.7087   47.9315 H   0  0  0  0  0  0  0  0  0  0  0  0
    9.4452   -6.3405   47.4204 C   0  0  0  0  0  0  0  0  0  0  0  0
    9.4952   -5.0072   47.5300 C   0  0  0  0  0  0  0  0  0  0  0  0
    8.3751   -4.0637   47.3888 C   0  0  0  0  0  0  0  0  0  0  0  0
    8.0292   -3.1274   48.3429 C   0  0  0  0  0  0  0  0  0  0  0  0
    6.9565   -2.4334   47.8063 C   0  0  0  0  0  0  0  0  0  0  0  0
    6.7401   -2.9966   46.5599 C   0  0  0  0  0  0  0  0  0  0  0  0
    7.6019   -3.9579   46.3371 O   0  0  0  0  0  0  0  0  0  0  0  0
    5.6974   -2.5935   45.6030 C   0  0  0  0  0  0  0  0  0  0  0  0
    5.1251   -1.3141   45.6613 C   0  0  0  0  0  0  0  0  0  0  0  0
    4.1275   -0.9458   44.7534 C   0  0  0  0  0  0  0  0  0  0  0  0
    3.6966   -1.8540   43.7822 C   0  0  0  0  0  0  0  0  0  0  0  0
    2.4450   -1.3958   42.6480 Cl  0  0  0  0  0  0  0  0  0  0  0  0
    4.2645   -3.1290   43.7168 C   0  0  0  0  0  0  0  0  0  0  0  0
    5.2620   -3.4960   44.6243 C   0  0  0  0  0  0  0  0  0  0  0  0
 22 23  2  0  0  0
 23 26  1  0  0  0
 26 27  2  0  0  0
 27 28  1  0  0  0
 28 29  2  0  0  0
 29 30  1  0  0  0
 30 31  2  0  0  0
 31 33  1  0  0  0
 33 34  2  0  0  0
 34 35  1  0  0  0
 35 36  2  0  0  0
 36 37  1  0  0  0
 36 38  1  0  0  0
 38 39  2  0  0  0
 31 32  1  0  0  0
 23 24  1  0  0  0
 24  1  1  0  0  0
  1  2  2  0  0  0
  2  3  1  0  0  0
  3  4  2  0  0  0
  4  6  1  0  0  0
  6  7  1  0  0  0
  7  8  1  0  0  0
  8  9  1  0  0  0
  9 12  1  0  0  0
 12 13  1  0  0  0
 13 14  2  0  0  0
 14 15  1  0  0  0
 15 16  2  0  0  0
 16 17  1  0  0  0
 17 18  2  0  0  0
 18 19  1  0  0  0
 19 20  2  0  0  0
 20 21  1  0  0  0
  9 10  1  0  0  0
 10 11  1  0  0  0
  4  5  1  0  0  0
 32 28  1  0  0  0
  5  1  1  0  0  0
 39 33  1  0  0  0
 11  6  1  0  0  0
 21 13  1  0  0  0
 21 16  1  0  0  0
 24 25  1  0  0  0
M  END
>  <minimizedAffinity>
-10.3097

>  <minimizedRMSD>
1.46578

>  <molecular weight>
524.857

$$$$



 45 51  0  0  0  0  0  0  0  0999 V2000
    8.3025   -7.9255   46.2316 O   0  0  0  0  0  0  0  0  0  0  0  0
    8.2067   -6.9056   46.9656 C   0  0  0  0  0  0  0  0  0  0  0  0
    7.0026   -6.5992   47.6509 N   0  0  0  0  0  0  0  0  0  0  0  0
    7.0126   -5.8627   48.3040 H   0  0  0  0  0  0  0  0  0  0  0  0
    5.7930   -7.2931   47.4463 C   0  0  0  0  0  0  0  0  0  0  0  0
    5.3553   -8.2511   48.2816 N   0  0  0  0  0  0  0  0  0  0  0  0
    4.2044   -8.7811   47.8830 N   0  0  0  0  0  0  0  0  0  0  0  0
    3.7435   -8.2294   46.7400 C   0  0  0  0  0  0  0  0  0  0  0  0
    4.7547   -7.0095   46.1597 S   0  0  0  0  0  0  0  0  0  0  0  0
    2.5330   -8.6320   46.1085 N   0  0  0  0  0  0  0  0  0  0  0  0
    2.1923  -10.0645   46.1190 C   0  0  0  0  0  0  0  0  0  0  0  0
    0.8522  -10.3880   45.4544 C   0  0  0  0  0  0  0  0  0  0  0  0
   -0.1676   -9.2986   45.7520 C   0  0  0  0  0  0  0  0  0  0  0  0
    0.3398   -8.0428   45.0652 C   0  0  0  0  0  0  0  0  0  0  0  0
    1.6057   -7.5533   45.7446 C   0  0  0  0  0  0  0  0  0  0  0  0
   -1.5782   -9.7213   45.3016 C   0  0  0  0  0  0  0  0  0  0  0  0
   -2.2063   -8.7902   44.2939 C   0  0  0  0  0  0  0  0  0  0  0  0
   -1.6981   -8.6119   43.0551 N   0  0  0  0  0  0  0  0  0  0  0  0
   -2.4798   -7.7482   42.4139 N   0  0  0  0  0  0  0  0  0  0  0  0
   -3.4574   -7.4196   43.2746 C   0  0  0  0  0  0  0  0  0  0  0  0
   -4.5198   -6.5444   43.0462 C   0  0  0  0  0  0  0  0  0  0  0  0
   -5.4131   -6.3531   44.0573 N   0  0  0  0  0  0  0  0  0  0  0  0
   -5.2768   -6.9963   45.2597 C   0  0  0  0  0  0  0  0  0  0  0  0
   -4.1987   -7.8771   45.4758 C   0  0  0  0  0  0  0  0  0  0  0  0
   -3.3249   -8.0487   44.4508 N   0  0  0  0  0  0  0  0  0  0  0  0
    9.3699   -6.0025   47.1708 C   0  0  0  0  0  0  0  0  0  0  0  0
    8.9852   -4.8890   47.9714 O   0  0  0  0  0  0  0  0  0  0  0  0
    8.8183   -3.6070   47.4408 C   0  0  0  0  0  0  0  0  0  0  0  0
    9.6866   -3.1165   46.6661 O   0  0  0  0  0  0  0  0  0  0  0  0
    7.5433   -2.8744   47.7134 C   0  0  0  0  0  0  0  0  0  0  0  0
    7.7196   -1.3555   47.5890 C   0  0  0  0  0  0  0  0  0  0  0  0
    6.7723   -0.9935   46.5184 C   0  0  0  0  0  0  0  0  0  0  0  0
    6.6754    0.1693   46.0448 O   0  0  0  0  0  0  0  0  0  0  0  0
    6.0285   -2.0968   46.0333 N   0  0  0  0  0  0  0  0  0  0  0  0
    6.4842   -3.3077   46.6892 C   0  0  0  0  0  0  0  0  0  0  0  0
    5.2469   -2.1026   44.8282 C   0  0  0  0  0  0  0  0  0  0  0  0
    5.8142   -2.6078   43.6493 C   0  0  0  0  0  0  0  0  0  0  0  0
    5.0884   -2.6281   42.4568 C   0  0  0  0  0  0  0  0  0  0  0  0
    3.7780   -2.1501   42.4261 C   0  0  0  0  0  0  0  0  0  0  0  0
    3.1857   -1.6567   43.5901 C   0  0  0  0  0  0  0  0  0  0  0  0
    1.8651   -1.2005   43.5551 C   0  0  0  0  0  0  0  0  0  0  0  0
    1.2546   -0.7306   44.7207 C   0  0  0  0  0  0  0  0  0  0  0  0
    1.9606   -0.7196   45.9262 C   0  0  0  0  0  0  0  0  0  0  0  0
    3.2821   -1.1718   45.9696 C   0  0  0  0  0  0  0  0  0  0  0  0
    3.9148   -1.6339   44.8058 C   0  0  0  0  0  0  0  0  0  0  0  0
  1  2  2  0  0  0
  2 26  1  0  0  0
 26 27  1  0  0  0
 27 28  1  0  0  0
 28 29  2  0  0  0
 30 28  1  0  0  0
 30 31  1  0  0  0
 31 32  1  0  0  0
 32 33  2  0  0  0
 32 34  1  0  0  0
 34 36  1  0  0  0
 36 37  2  0  0  0
 37 38  1  0  0  0
 38 39  2  0  0  0
 39 40  1  0  0  0
 40 41  2  0  0  0
 41 42  1  0  0  0
 42 43  2  0  0  0
 43 44  1  0  0  0
 44 45  2  0  0  0
 34 35  1  0  0  0
  2  3  1  0  0  0
  3  5  1  0  0  0
  5  6  2  0  0  0
  6  7  1  0  0  0
  7  8  2  0  0  0
  8 10  1  0  0  0
 10 11  1  0  0  0
 11 12  1  0  0  0
 12 13  1  0  0  0
 13 16  1  0  0  0
 16 17  1  0  0  0
 17 18  2  0  0  0
 18 19  1  0  0  0
 19 20  2  0  0  0
 20 21  1  0  0  0
 21 22  2  0  0  0
 22 23  1  0  0  0
 23 24  2  0  0  0
 24 25  1  0  0  0
 13 14  1  0  0  0
 14 15  1  0  0  0
  8  9  1  0  0  0
 35 30  1  0  0  0
  9  5  1  0  0  0
 45 36  1  0  0  0
 15 10  1  0  0  0
 45 40  1  0  0  0
 25 17  1  0  0  0
 25 20  1  0  0  0
  3  4  1  0  0  0
M  END
>  <minimizedAffinity>
-10.0291

>  <minimizedRMSD>
1.3783

>  <molecular weight>
583.452

$$$$



 38 43  0  0  0  0  0  0  0  0999 V2000
    5.6824   -7.3707   47.5419 C   0  0  0  0  0  0  0  0  0  0  0  0
    5.2801   -8.4106   48.2927 N   0  0  0  0  0  0  0  0  0  0  0  0
    4.1434   -8.9398   47.8544 N   0  0  0  0  0  0  0  0  0  0  0  0
    3.6575   -8.3054   46.7661 C   0  0  0  0  0  0  0  0  0  0  0  0
    4.6262   -7.0092   46.2897 S   0  0  0  0  0  0  0  0  0  0  0  0
    2.4553   -8.6889   46.1073 N   0  0  0  0  0  0  0  0  0  0  0  0
    2.1036  -10.1185   46.0907 C   0  0  0  0  0  0  0  0  0  0  0  0
    0.7734  -10.4216   45.3973 C   0  0  0  0  0  0  0  0  0  0  0  0
   -0.2432   -9.3287   45.6924 C   0  0  0  0  0  0  0  0  0  0  0  0
    0.2861   -8.0671   45.0334 C   0  0  0  0  0  0  0  0  0  0  0  0
    1.5433   -7.5974   45.7426 C   0  0  0  0  0  0  0  0  0  0  0  0
   -1.6485   -9.7337   45.2104 C   0  0  0  0  0  0  0  0  0  0  0  0
   -2.2627   -8.7684   44.2267 C   0  0  0  0  0  0  0  0  0  0  0  0
   -1.7473   -8.5606   42.9954 N   0  0  0  0  0  0  0  0  0  0  0  0
   -2.5174   -7.6713   42.3755 N   0  0  0  0  0  0  0  0  0  0  0  0
   -3.4954   -7.3569   43.2412 C   0  0  0  0  0  0  0  0  0  0  0  0
   -4.5479   -6.4648   43.0329 C   0  0  0  0  0  0  0  0  0  0  0  0
   -5.4437   -6.2929   44.0453 N   0  0  0  0  0  0  0  0  0  0  0  0
   -5.3192   -6.9709   45.2297 C   0  0  0  0  0  0  0  0  0  0  0  0
   -4.2512   -7.8684   45.4255 C   0  0  0  0  0  0  0  0  0  0  0  0
   -3.3746   -8.0201   44.3996 N   0  0  0  0  0  0  0  0  0  0  0  0
    8.2590   -7.9636   46.4604 O   0  0  0  0  0  0  0  0  0  0  0  0
    8.1075   -6.9278   47.1630 C   0  0  0  0  0  0  0  0  0  0  0  0
    6.8697   -6.6577   47.8033 N   0  0  0  0  0  0  0  0  0  0  0  0
    6.8389   -5.9314   48.4673 H   0  0  0  0  0  0  0  0  0  0  0  0
    9.2496   -6.0506   47.4397 C   0  0  0  0  0  0  0  0  0  0  0  0
    9.2169   -4.7201   47.5819 C   0  0  0  0  0  0  0  0  0  0  0  0
    8.0484   -3.8302   47.3482 C   0  0  0  0  0  0  0  0  0  0  0  0
    7.5954   -2.8213   48.0747 C   0  0  0  0  0  0  0  0  0  0  0  0
    7.0344   -3.0657   46.7273 C   0  0  0  0  0  0  0  0  0  0  0  0
    6.0066   -2.2148   46.2799 C   0  0  0  0  0  0  0  0  0  0  0  0
    7.1341   -3.5197   46.0698 S   0  0  0  0  0  0  0  0  0  0  0  0
    5.1202   -2.0635   45.1016 C   0  0  0  0  0  0  0  0  0  0  0  0
    5.3472   -2.6888   43.8593 C   0  0  0  0  0  0  0  0  0  0  0  0
    4.4561   -2.5091   42.7981 C   0  0  0  0  0  0  0  0  0  0  0  0
    3.3270   -1.7043   42.9651 C   0  0  0  0  0  0  0  0  0  0  0  0
    3.0900   -1.0812   44.1928 C   0  0  0  0  0  0  0  0  0  0  0  0
    3.9823   -1.2623   45.2539 C   0  0  0  0  0  0  0  0  0  0  0  0
 22 23  2  0  0  0
 23 26  1  0  0  0
 26 27  2  0  0  0
 27 28  1  0  0  0
 28 29  2  0  0  0
 29 30  1  0  0  0
 30 31  2  0  0  0
 31 33  1  0  0  0
 33 34  2  0  0  0
 34 35  1  0  0  0
 35 36  2  0  0  0
 36 37  1  0  0  0
 37 38  2  0  0  0
 31 32  1  0  0  0
 23 24  1  0  0  0
 24  1  1  0  0  0
  1  2  2  0  0  0
  2  3  1  0  0  0
  3  4  2  0  0  0
  4  6  1  0  0  0
  6  7  1  0  0  0
  7  8  1  0  0  0
  8  9  1  0  0  0
  9 12  1  0  0  0
 12 13  1  0  0  0
 13 14  2  0  0  0
 14 15  1  0  0  0
 15 16  2  0  0  0
 16 17  1  0  0  0
 17 18  2  0  0  0
 18 19  1  0  0  0
 19 20  2  0  0  0
 20 21  1  0  0  0
  9 10  1  0  0  0
 10 11  1  0  0  0
  4  5  1  0  0  0
 32 28  1  0  0  0
  5  1  1  0  0  0
 38 33  1  0  0  0
 11  6  1  0  0  0
 21 13  1  0  0  0
 21 16  1  0  0  0
 24 25  1  0  0  0
M  END
>  <minimizedAffinity>
-9.88602

>  <minimizedRMSD>
1.12363

>  <molecular weight>
505.469

$$$$



 36 41  0  0  0  0  0  0  0  0999 V2000
    5.6990   -7.3270   47.5195 C   0  0  0  0  0  0  0  0  0  0  0  0
    5.2888   -8.3464   48.2937 N   0  0  0  0  0  0  0  0  0  0  0  0
    4.1513   -8.8809   47.8637 N   0  0  0  0  0  0  0  0  0  0  0  0
    3.6731   -8.2707   46.7582 C   0  0  0  0  0  0  0  0  0  0  0  0
    4.6494   -6.9896   46.2552 S   0  0  0  0  0  0  0  0  0  0  0  0
    2.4720   -8.6651   46.1036 N   0  0  0  0  0  0  0  0  0  0  0  0
    2.1229  -10.0955   46.1045 C   0  0  0  0  0  0  0  0  0  0  0  0
    0.7934  -10.4096   45.4145 C   0  0  0  0  0  0  0  0  0  0  0  0
   -0.2253   -9.3149   45.6955 C   0  0  0  0  0  0  0  0  0  0  0  0
    0.3021   -8.0609   45.0209 C   0  0  0  0  0  0  0  0  0  0  0  0
    1.5581   -7.5801   45.7248 C   0  0  0  0  0  0  0  0  0  0  0  0
   -1.6297   -9.7281   45.2180 C   0  0  0  0  0  0  0  0  0  0  0  0
   -2.2511   -8.7685   44.2331 C   0  0  0  0  0  0  0  0  0  0  0  0
   -1.7405   -8.5627   42.9994 N   0  0  0  0  0  0  0  0  0  0  0  0
   -2.5162   -7.6786   42.3791 N   0  0  0  0  0  0  0  0  0  0  0  0
   -3.4927   -7.3654   43.2468 C   0  0  0  0  0  0  0  0  0  0  0  0
   -4.5494   -6.4783   43.0390 C   0  0  0  0  0  0  0  0  0  0  0  0
   -5.4427   -6.3066   44.0538 N   0  0  0  0  0  0  0  0  0  0  0  0
   -5.3115   -6.9801   45.2401 C   0  0  0  0  0  0  0  0  0  0  0  0
   -4.2392   -7.8725   45.4354 C   0  0  0  0  0  0  0  0  0  0  0  0
   -3.3654   -8.0241   44.4072 N   0  0  0  0  0  0  0  0  0  0  0  0
    8.3453   -8.2500   46.9675 O   0  0  0  0  0  0  0  0  0  0  0  0
    8.1769   -7.0723   47.3848 C   0  0  0  0  0  0  0  0  0  0  0  0
    6.8889   -6.6139   47.7676 N   0  0  0  0  0  0  0  0  0  0  0  0
    6.8233   -5.7488   48.2329 H   0  0  0  0  0  0  0  0  0  0  0  0
    9.3331   -6.1967   47.6067 C   0  0  0  0  0  0  0  0  0  0  0  0
    9.3519   -4.8609   47.5251 C   0  0  0  0  0  0  0  0  0  0  0  0
    8.2559   -3.9965   47.0590 C   0  0  0  0  0  0  0  0  0  0  0  0
    8.0778   -2.6797   47.4863 C   0  0  0  0  0  0  0  0  0  0  0  0
    6.9692   -2.2764   46.7723 C   0  0  0  0  0  0  0  0  0  0  0  0
    6.3004   -1.0548   46.7723 C   0  0  0  0  0  0  0  0  0  0  0  0
    5.1822   -0.9252   45.9281 C   0  0  0  0  0  0  0  0  0  0  0  0
    4.7666   -2.0038   45.1164 C   0  0  0  0  0  0  0  0  0  0  0  0
    5.4643   -3.2251   45.1382 C   0  0  0  0  0  0  0  0  0  0  0  0
    6.5660   -3.3195   45.9849 C   0  0  0  0  0  0  0  0  0  0  0  0
    7.3515   -4.3463   46.1619 O   0  0  0  0  0  0  0  0  0  0  0  0
 22 23  2  0  0  0
 23 26  1  0  0  0
 26 27  2  0  0  0
 27 28  1  0  0  0
 28 29  2  0  0  0
 29 30  1  0  0  0
 30 31  2  0  0  0
 31 32  1  0  0  0
 32 33  2  0  0  0
 33 34  1  0  0  0
 34 35  2  0  0  0
 35 36  1  0  0  0
 23 24  1  0  0  0
 24  1  1  0  0  0
  1  2  2  0  0  0
  2  3  1  0  0  0
  3  4  2  0  0  0
  4  6  1  0  0  0
  6  7  1  0  0  0
  7  8  1  0  0  0
  8  9  1  0  0  0
  9 12  1  0  0  0
 12 13  1  0  0  0
 13 14  2  0  0  0
 14 15  1  0  0  0
 15 16  2  0  0  0
 16 17  1  0  0  0
 17 18  2  0  0  0
 18 19  1  0  0  0
 19 20  2  0  0  0
 20 21  1  0  0  0
  9 10  1  0  0  0
 10 11  1  0  0  0
  4  5  1  0  0  0
 36 28  1  0  0  0
  5  1  1  0  0  0
 35 30  1  0  0  0
 11  6  1  0  0  0
 21 13  1  0  0  0
 21 16  1  0  0  0
 24 25  1  0  0  0
M  END
>  <minimizedAffinity>
-9.77632

>  <minimizedRMSD>
1.04135

>  <molecular weight>
465.382

$$$$



 36 41  0  0  0  0  0  0  0  0999 V2000
    5.6990   -7.3270   47.5195 C   0  0  0  0  0  0  0  0  0  0  0  0
    5.2888   -8.3464   48.2937 N   0  0  0  0  0  0  0  0  0  0  0  0
    4.1513   -8.8809   47.8637 N   0  0  0  0  0  0  0  0  0  0  0  0
    3.6731   -8.2707   46.7582 C   0  0  0  0  0  0  0  0  0  0  0  0
    4.6494   -6.9896   46.2552 S   0  0  0  0  0  0  0  0  0  0  0  0
    2.4720   -8.6651   46.1036 N   0  0  0  0  0  0  0  0  0  0  0  0
    2.1229  -10.0955   46.1045 C   0  0  0  0  0  0  0  0  0  0  0  0
    0.7934  -10.4096   45.4145 C   0  0  0  0  0  0  0  0  0  0  0  0
   -0.2253   -9.3149   45.6955 C   0  0  0  0  0  0  0  0  0  0  0  0
    0.3021   -8.0609   45.0209 C   0  0  0  0  0  0  0  0  0  0  0  0
    1.5581   -7.5801   45.7248 C   0  0  0  0  0  0  0  0  0  0  0  0
   -1.6297   -9.7281   45.2180 C   0  0  0  0  0  0  0  0  0  0  0  0
   -2.2511   -8.7685   44.2331 C   0  0  0  0  0  0  0  0  0  0  0  0
   -1.7405   -8.5627   42.9994 N   0  0  0  0  0  0  0  0  0  0  0  0
   -2.5162   -7.6786   42.3791 N   0  0  0  0  0  0  0  0  0  0  0  0
   -3.4927   -7.3654   43.2468 C   0  0  0  0  0  0  0  0  0  0  0  0
   -4.5494   -6.4783   43.0390 C   0  0  0  0  0  0  0  0  0  0  0  0
   -5.4427   -6.3066   44.0538 N   0  0  0  0  0  0  0  0  0  0  0  0
   -5.3115   -6.9801   45.2401 C   0  0  0  0  0  0  0  0  0  0  0  0
   -4.2392   -7.8725   45.4354 C   0  0  0  0  0  0  0  0  0  0  0  0
   -3.3654   -8.0241   44.4072 N   0  0  0  0  0  0  0  0  0  0  0  0
    8.3453   -8.2500   46.9675 O   0  0  0  0  0  0  0  0  0  0  0  0
    8.1769   -7.0723   47.3848 C   0  0  0  0  0  0  0  0  0  0  0  0
    6.8889   -6.6139   47.7676 N   0  0  0  0  0  0  0  0  0  0  0  0
    6.8233   -5.7488   48.2329 H   0  0  0  0  0  0  0  0  0  0  0  0
    9.3331   -6.1967   47.6067 C   0  0  0  0  0  0  0  0  0  0  0  0
    9.3519   -4.8609   47.5251 C   0  0  0  0  0  0  0  0  0  0  0  0
    8.2559   -3.9965   47.0590 C   0  0  0  0  0  0  0  0  0  0  0  0
    8.0778   -2.6797   47.4863 C   0  0  0  0  0  0  0  0  0  0  0  0
    6.9692   -2.2764   46.7723 C   0  0  0  0  0  0  0  0  0  0  0  0
    6.3004   -1.0548   46.7723 C   0  0  0  0  0  0  0  0  0  0  0  0
    5.1822   -0.9252   45.9281 C   0  0  0  0  0  0  0  0  0  0  0  0
    4.7666   -2.0038   45.1164 C   0  0  0  0  0  0  0  0  0  0  0  0
    5.4643   -3.2251   45.1382 C   0  0  0  0  0  0  0  0  0  0  0  0
    6.5660   -3.3195   45.9849 C   0  0  0  0  0  0  0  0  0  0  0  0
    7.3515   -4.3463   46.1619 O   0  0  0  0  0  0  0  0  0  0  0  0
 22 23  2  0  0  0
 23 26  1  0  0  0
 26 27  2  0  0  0
 27 28  1  0  0  0
 28 29  2  0  0  0
 29 30  1  0  0  0
 30 31  2  0  0  0
 31 32  1  0  0  0
 32 33  2  0  0  0
 33 34  1  0  0  0
 34 35  2  0  0  0
 35 36  1  0  0  0
 23 24  1  0  0  0
 24  1  1  0  0  0
  1  2  2  0  0  0
  2  3  1  0  0  0
  3  4  2  0  0  0
  4  6  1  0  0  0
  6  7  1  0  0  0
  7  8  1  0  0  0
  8  9  1  0  0  0
  9 12  1  0  0  0
 12 13  1  0  0  0
 13 14  2  0  0  0
 14 15  1  0  0  0
 15 16  2  0  0  0
 16 17  1  0  0  0
 17 18  2  0  0  0
 18 19  1  0  0  0
 19 20  2  0  0  0
 20 21  1  0  0  0
  9 10  1  0  0  0
 10 11  1  0  0  0
  4  5  1  0  0  0
 36 28  1  0  0  0
  5  1  1  0  0  0
 35 30  1  0  0  0
 11  6  1  0  0  0
 21 13  1  0  0  0
 21 16  1  0  0  0
 24 25  1  0  0  0
M  END
>  <minimizedAffinity>
-9.77632

>  <minimizedRMSD>
1.04135

>  <molecular weight>
465.382

$$$$



 36 41  0  0  0  0  0  0  0  0999 V2000
    5.6990   -7.3270   47.5195 C   0  0  0  0  0  0  0  0  0  0  0  0
    5.2888   -8.3464   48.2937 N   0  0  0  0  0  0  0  0  0  0  0  0
    4.1513   -8.8809   47.8637 N   0  0  0  0  0  0  0  0  0  0  0  0
    3.6731   -8.2707   46.7582 C   0  0  0  0  0  0  0  0  0  0  0  0
    4.6494   -6.9896   46.2552 S   0  0  0  0  0  0  0  0  0  0  0  0
    2.4720   -8.6651   46.1036 N   0  0  0  0  0  0  0  0  0  0  0  0
    2.1229  -10.0955   46.1045 C   0  0  0  0  0  0  0  0  0  0  0  0
    0.7934  -10.4096   45.4145 C   0  0  0  0  0  0  0  0  0  0  0  0
   -0.2253   -9.3149   45.6955 C   0  0  0  0  0  0  0  0  0  0  0  0
    0.3021   -8.0609   45.0209 C   0  0  0  0  0  0  0  0  0  0  0  0
    1.5581   -7.5801   45.7248 C   0  0  0  0  0  0  0  0  0  0  0  0
   -1.6297   -9.7281   45.2180 C   0  0  0  0  0  0  0  0  0  0  0  0
   -2.2511   -8.7685   44.2331 C   0  0  0  0  0  0  0  0  0  0  0  0
   -1.7405   -8.5627   42.9994 N   0  0  0  0  0  0  0  0  0  0  0  0
   -2.5162   -7.6786   42.3791 N   0  0  0  0  0  0  0  0  0  0  0  0
   -3.4927   -7.3654   43.2468 C   0  0  0  0  0  0  0  0  0  0  0  0
   -4.5494   -6.4783   43.0390 C   0  0  0  0  0  0  0  0  0  0  0  0
   -5.4427   -6.3066   44.0538 N   0  0  0  0  0  0  0  0  0  0  0  0
   -5.3115   -6.9801   45.2401 C   0  0  0  0  0  0  0  0  0  0  0  0
   -4.2392   -7.8725   45.4354 C   0  0  0  0  0  0  0  0  0  0  0  0
   -3.3654   -8.0241   44.4072 N   0  0  0  0  0  0  0  0  0  0  0  0
    8.3453   -8.2500   46.9675 O   0  0  0  0  0  0  0  0  0  0  0  0
    8.1769   -7.0723   47.3848 C   0  0  0  0  0  0  0  0  0  0  0  0
    6.8889   -6.6139   47.7676 N   0  0  0  0  0  0  0  0  0  0  0  0
    6.8233   -5.7488   48.2329 H   0  0  0  0  0  0  0  0  0  0  0  0
    9.3331   -6.1967   47.6067 C   0  0  0  0  0  0  0  0  0  0  0  0
    9.3519   -4.8609   47.5251 C   0  0  0  0  0  0  0  0  0  0  0  0
    8.2559   -3.9965   47.0590 C   0  0  0  0  0  0  0  0  0  0  0  0
    8.0778   -2.6797   47.4863 C   0  0  0  0  0  0  0  0  0  0  0  0
    6.9692   -2.2764   46.7723 C   0  0  0  0  0  0  0  0  0  0  0  0
    6.3004   -1.0548   46.7723 C   0  0  0  0  0  0  0  0  0  0  0  0
    5.1822   -0.9252   45.9281 C   0  0  0  0  0  0  0  0  0  0  0  0
    4.7666   -2.0038   45.1164 C   0  0  0  0  0  0  0  0  0  0  0  0
    5.4643   -3.2251   45.1382 C   0  0  0  0  0  0  0  0  0  0  0  0
    6.5660   -3.3195   45.9849 C   0  0  0  0  0  0  0  0  0  0  0  0
    7.3515   -4.3463   46.1619 O   0  0  0  0  0  0  0  0  0  0  0  0
 22 23  2  0  0  0
 23 26  1  0  0  0
 26 27  2  0  0  0
 27 28  1  0  0  0
 28 29  2  0  0  0
 29 30  1  0  0  0
 30 31  2  0  0  0
 31 32  1  0  0  0
 32 33  2  0  0  0
 33 34  1  0  0  0
 34 35  2  0  0  0
 35 36  1  0  0  0
 23 24  1  0  0  0
 24  1  1  0  0  0
  1  2  2  0  0  0
  2  3  1  0  0  0
  3  4  2  0  0  0
  4  6  1  0  0  0
  6  7  1  0  0  0
  7  8  1  0  0  0
  8  9  1  0  0  0
  9 12  1  0  0  0
 12 13  1  0  0  0
 13 14  2  0  0  0
 14 15  1  0  0  0
 15 16  2  0  0  0
 16 17  1  0  0  0
 17 18  2  0  0  0
 18 19  1  0  0  0
 19 20  2  0  0  0
 20 21  1  0  0  0
  9 10  1  0  0  0
 10 11  1  0  0  0
  4  5  1  0  0  0
 36 28  1  0  0  0
  5  1  1  0  0  0
 35 30  1  0  0  0
 11  6  1  0  0  0
 21 13  1  0  0  0
 21 16  1  0  0  0
 24 25  1  0  0  0
M  END
>  <minimizedAffinity>
-9.77632

>  <minimizedRMSD>
1.04135

>  <molecular weight>
465.382

$$$$



 36 41  0  0  0  0  0  0  0  0999 V2000
    5.6990   -7.3270   47.5195 C   0  0  0  0  0  0  0  0  0  0  0  0
    5.2888   -8.3464   48.2937 N   0  0  0  0  0  0  0  0  0  0  0  0
    4.1513   -8.8809   47.8637 N   0  0  0  0  0  0  0  0  0  0  0  0
    3.6731   -8.2707   46.7582 C   0  0  0  0  0  0  0  0  0  0  0  0
    4.6494   -6.9896   46.2552 S   0  0  0  0  0  0  0  0  0  0  0  0
    2.4720   -8.6651   46.1036 N   0  0  0  0  0  0  0  0  0  0  0  0
    2.1229  -10.0955   46.1045 C   0  0  0  0  0  0  0  0  0  0  0  0
    0.7934  -10.4096   45.4145 C   0  0  0  0  0  0  0  0  0  0  0  0
   -0.2253   -9.3149   45.6955 C   0  0  0  0  0  0  0  0  0  0  0  0
    0.3021   -8.0609   45.0209 C   0  0  0  0  0  0  0  0  0  0  0  0
    1.5581   -7.5801   45.7248 C   0  0  0  0  0  0  0  0  0  0  0  0
   -1.6297   -9.7281   45.2180 C   0  0  0  0  0  0  0  0  0  0  0  0
   -2.2511   -8.7685   44.2331 C   0  0  0  0  0  0  0  0  0  0  0  0
   -1.7405   -8.5627   42.9994 N   0  0  0  0  0  0  0  0  0  0  0  0
   -2.5162   -7.6786   42.3791 N   0  0  0  0  0  0  0  0  0  0  0  0
   -3.4927   -7.3654   43.2468 C   0  0  0  0  0  0  0  0  0  0  0  0
   -4.5494   -6.4783   43.0390 C   0  0  0  0  0  0  0  0  0  0  0  0
   -5.4427   -6.3066   44.0538 N   0  0  0  0  0  0  0  0  0  0  0  0
   -5.3115   -6.9801   45.2401 C   0  0  0  0  0  0  0  0  0  0  0  0
   -4.2392   -7.8725   45.4354 C   0  0  0  0  0  0  0  0  0  0  0  0
   -3.3654   -8.0241   44.4072 N   0  0  0  0  0  0  0  0  0  0  0  0
    8.3453   -8.2500   46.9675 O   0  0  0  0  0  0  0  0  0  0  0  0
    8.1769   -7.0723   47.3848 C   0  0  0  0  0  0  0  0  0  0  0  0
    6.8889   -6.6139   47.7676 N   0  0  0  0  0  0  0  0  0  0  0  0
    6.8233   -5.7488   48.2329 H   0  0  0  0  0  0  0  0  0  0  0  0
    9.3331   -6.1967   47.6067 C   0  0  0  0  0  0  0  0  0  0  0  0
    9.3519   -4.8609   47.5251 C   0  0  0  0  0  0  0  0  0  0  0  0
    8.2559   -3.9965   47.0590 C   0  0  0  0  0  0  0  0  0  0  0  0
    8.0778   -2.6797   47.4863 C   0  0  0  0  0  0  0  0  0  0  0  0
    6.9692   -2.2764   46.7723 C   0  0  0  0  0  0  0  0  0  0  0  0
    6.3004   -1.0548   46.7723 C   0  0  0  0  0  0  0  0  0  0  0  0
    5.1822   -0.9252   45.9281 C   0  0  0  0  0  0  0  0  0  0  0  0
    4.7666   -2.0038   45.1164 C   0  0  0  0  0  0  0  0  0  0  0  0
    5.4643   -3.2251   45.1382 C   0  0  0  0  0  0  0  0  0  0  0  0
    6.5660   -3.3195   45.9849 C   0  0  0  0  0  0  0  0  0  0  0  0
    7.3515   -4.3463   46.1619 O   0  0  0  0  0  0  0  0  0  0  0  0
 22 23  2  0  0  0
 23 26  1  0  0  0
 26 27  2  0  0  0
 27 28  1  0  0  0
 28 29  2  0  0  0
 29 30  1  0  0  0
 30 31  2  0  0  0
 31 32  1  0  0  0
 32 33  2  0  0  0
 33 34  1  0  0  0
 34 35  2  0  0  0
 35 36  1  0  0  0
 23 24  1  0  0  0
 24  1  1  0  0  0
  1  2  2  0  0  0
  2  3  1  0  0  0
  3  4  2  0  0  0
  4  6  1  0  0  0
  6  7  1  0  0  0
  7  8  1  0  0  0
  8  9  1  0  0  0
  9 12  1  0  0  0
 12 13  1  0  0  0
 13 14  2  0  0  0
 14 15  1  0  0  0
 15 16  2  0  0  0
 16 17  1  0  0  0
 17 18  2  0  0  0
 18 19  1  0  0  0
 19 20  2  0  0  0
 20 21  1  0  0  0
  9 10  1  0  0  0
 10 11  1  0  0  0
  4  5  1  0  0  0
 36 28  1  0  0  0
  5  1  1  0  0  0
 35 30  1  0  0  0
 11  6  1  0  0  0
 21 13  1  0  0  0
 21 16  1  0  0  0
 24 25  1  0  0  0
M  END
>  <minimizedAffinity>
-9.77632

>  <minimizedRMSD>
1.04135

>  <molecular weight>
465.382

$$$$



 36 41  0  0  0  0  0  0  0  0999 V2000
    5.6990   -7.3270   47.5195 C   0  0  0  0  0  0  0  0  0  0  0  0
    5.2888   -8.3464   48.2937 N   0  0  0  0  0  0  0  0  0  0  0  0
    4.1513   -8.8809   47.8637 N   0  0  0  0  0  0  0  0  0  0  0  0
    3.6731   -8.2707   46.7582 C   0  0  0  0  0  0  0  0  0  0  0  0
    4.6494   -6.9896   46.2552 S   0  0  0  0  0  0  0  0  0  0  0  0
    2.4720   -8.6651   46.1036 N   0  0  0  0  0  0  0  0  0  0  0  0
    2.1229  -10.0955   46.1045 C   0  0  0  0  0  0  0  0  0  0  0  0
    0.7934  -10.4096   45.4145 C   0  0  0  0  0  0  0  0  0  0  0  0
   -0.2253   -9.3149   45.6955 C   0  0  0  0  0  0  0  0  0  0  0  0
    0.3021   -8.0609   45.0209 C   0  0  0  0  0  0  0  0  0  0  0  0
    1.5581   -7.5801   45.7248 C   0  0  0  0  0  0  0  0  0  0  0  0
   -1.6297   -9.7281   45.2180 C   0  0  0  0  0  0  0  0  0  0  0  0
   -2.2511   -8.7685   44.2331 C   0  0  0  0  0  0  0  0  0  0  0  0
   -1.7405   -8.5627   42.9994 N   0  0  0  0  0  0  0  0  0  0  0  0
   -2.5162   -7.6786   42.3791 N   0  0  0  0  0  0  0  0  0  0  0  0
   -3.4927   -7.3654   43.2468 C   0  0  0  0  0  0  0  0  0  0  0  0
   -4.5494   -6.4783   43.0390 C   0  0  0  0  0  0  0  0  0  0  0  0
   -5.4427   -6.3066   44.0538 N   0  0  0  0  0  0  0  0  0  0  0  0
   -5.3115   -6.9801   45.2401 C   0  0  0  0  0  0  0  0  0  0  0  0
   -4.2392   -7.8725   45.4354 C   0  0  0  0  0  0  0  0  0  0  0  0
   -3.3654   -8.0241   44.4072 N   0  0  0  0  0  0  0  0  0  0  0  0
    8.3453   -8.2500   46.9675 O   0  0  0  0  0  0  0  0  0  0  0  0
    8.1769   -7.0723   47.3848 C   0  0  0  0  0  0  0  0  0  0  0  0
    6.8889   -6.6139   47.7676 N   0  0  0  0  0  0  0  0  0  0  0  0
    6.8233   -5.7488   48.2329 H   0  0  0  0  0  0  0  0  0  0  0  0
    9.3331   -6.1967   47.6067 C   0  0  0  0  0  0  0  0  0  0  0  0
    9.3519   -4.8609   47.5251 C   0  0  0  0  0  0  0  0  0  0  0  0
    8.2559   -3.9965   47.0590 C   0  0  0  0  0  0  0  0  0  0  0  0
    8.0778   -2.6797   47.4863 C   0  0  0  0  0  0  0  0  0  0  0  0
    6.9692   -2.2764   46.7723 C   0  0  0  0  0  0  0  0  0  0  0  0
    6.3004   -1.0548   46.7723 C   0  0  0  0  0  0  0  0  0  0  0  0
    5.1822   -0.9252   45.9281 C   0  0  0  0  0  0  0  0  0  0  0  0
    4.7666   -2.0038   45.1164 C   0  0  0  0  0  0  0  0  0  0  0  0
    5.4643   -3.2251   45.1382 C   0  0  0  0  0  0  0  0  0  0  0  0
    6.5660   -3.3195   45.9849 C   0  0  0  0  0  0  0  0  0  0  0  0
    7.3515   -4.3463   46.1619 O   0  0  0  0  0  0  0  0  0  0  0  0
 22 23  2  0  0  0
 23 26  1  0  0  0
 26 27  2  0  0  0
 27 28  1  0  0  0
 28 29  2  0  0  0
 29 30  1  0  0  0
 30 31  2  0  0  0
 31 32  1  0  0  0
 32 33  2  0  0  0
 33 34  1  0  0  0
 34 35  2  0  0  0
 35 36  1  0  0  0
 23 24  1  0  0  0
 24  1  1  0  0  0
  1  2  2  0  0  0
  2  3  1  0  0  0
  3  4  2  0  0  0
  4  6  1  0  0  0
  6  7  1  0  0  0
  7  8  1  0  0  0
  8  9  1  0  0  0
  9 12  1  0  0  0
 12 13  1  0  0  0
 13 14  2  0  0  0
 14 15  1  0  0  0
 15 16  2  0  0  0
 16 17  1  0  0  0
 17 18  2  0  0  0
 18 19  1  0  0  0
 19 20  2  0  0  0
 20 21  1  0  0  0
  9 10  1  0  0  0
 10 11  1  0  0  0
  4  5  1  0  0  0
 36 28  1  0  0  0
  5  1  1  0  0  0
 35 30  1  0  0  0
 11  6  1  0  0  0
 21 13  1  0  0  0
 21 16  1  0  0  0
 24 25  1  0  0  0
M  END
>  <minimizedAffinity>
-9.77632

>  <minimizedRMSD>
1.04135

>  <molecular weight>
465.382

$$$$



 36 41  0  0  0  0  0  0  0  0999 V2000
    5.6990   -7.3270   47.5195 C   0  0  0  0  0  0  0  0  0  0  0  0
    5.2888   -8.3464   48.2937 N   0  0  0  0  0  0  0  0  0  0  0  0
    4.1513   -8.8809   47.8637 N   0  0  0  0  0  0  0  0  0  0  0  0
    3.6731   -8.2707   46.7582 C   0  0  0  0  0  0  0  0  0  0  0  0
    4.6494   -6.9896   46.2552 S   0  0  0  0  0  0  0  0  0  0  0  0
    2.4720   -8.6651   46.1036 N   0  0  0  0  0  0  0  0  0  0  0  0
    2.1229  -10.0955   46.1045 C   0  0  0  0  0  0  0  0  0  0  0  0
    0.7934  -10.4096   45.4145 C   0  0  0  0  0  0  0  0  0  0  0  0
   -0.2253   -9.3149   45.6955 C   0  0  0  0  0  0  0  0  0  0  0  0
    0.3021   -8.0609   45.0209 C   0  0  0  0  0  0  0  0  0  0  0  0
    1.5581   -7.5801   45.7248 C   0  0  0  0  0  0  0  0  0  0  0  0
   -1.6297   -9.7281   45.2180 C   0  0  0  0  0  0  0  0  0  0  0  0
   -2.2511   -8.7685   44.2331 C   0  0  0  0  0  0  0  0  0  0  0  0
   -1.7405   -8.5627   42.9994 N   0  0  0  0  0  0  0  0  0  0  0  0
   -2.5162   -7.6786   42.3791 N   0  0  0  0  0  0  0  0  0  0  0  0
   -3.4927   -7.3654   43.2468 C   0  0  0  0  0  0  0  0  0  0  0  0
   -4.5494   -6.4783   43.0390 C   0  0  0  0  0  0  0  0  0  0  0  0
   -5.4427   -6.3066   44.0538 N   0  0  0  0  0  0  0  0  0  0  0  0
   -5.3115   -6.9801   45.2401 C   0  0  0  0  0  0  0  0  0  0  0  0
   -4.2392   -7.8725   45.4354 C   0  0  0  0  0  0  0  0  0  0  0  0
   -3.3654   -8.0241   44.4072 N   0  0  0  0  0  0  0  0  0  0  0  0
    8.3453   -8.2500   46.9675 O   0  0  0  0  0  0  0  0  0  0  0  0
    8.1769   -7.0723   47.3848 C   0  0  0  0  0  0  0  0  0  0  0  0
    6.8889   -6.6139   47.7676 N   0  0  0  0  0  0  0  0  0  0  0  0
    6.8233   -5.7488   48.2329 H   0  0  0  0  0  0  0  0  0  0  0  0
    9.3331   -6.1967   47.6067 C   0  0  0  0  0  0  0  0  0  0  0  0
    9.3519   -4.8609   47.5251 C   0  0  0  0  0  0  0  0  0  0  0  0
    8.2559   -3.9965   47.0590 C   0  0  0  0  0  0  0  0  0  0  0  0
    8.0778   -2.6797   47.4863 C   0  0  0  0  0  0  0  0  0  0  0  0
    6.9692   -2.2764   46.7723 C   0  0  0  0  0  0  0  0  0  0  0  0
    6.3004   -1.0548   46.7723 C   0  0  0  0  0  0  0  0  0  0  0  0
    5.1822   -0.9252   45.9281 C   0  0  0  0  0  0  0  0  0  0  0  0
    4.7666   -2.0038   45.1164 C   0  0  0  0  0  0  0  0  0  0  0  0
    5.4643   -3.2251   45.1382 C   0  0  0  0  0  0  0  0  0  0  0  0
    6.5660   -3.3195   45.9849 C   0  0  0  0  0  0  0  0  0  0  0  0
    7.3515   -4.3463   46.1619 O   0  0  0  0  0  0  0  0  0  0  0  0
 22 23  2  0  0  0
 23 26  1  0  0  0
 26 27  2  0  0  0
 27 28  1  0  0  0
 28 29  2  0  0  0
 29 30  1  0  0  0
 30 31  2  0  0  0
 31 32  1  0  0  0
 32 33  2  0  0  0
 33 34  1  0  0  0
 34 35  2  0  0  0
 35 36  1  0  0  0
 23 24  1  0  0  0
 24  1  1  0  0  0
  1  2  2  0  0  0
  2  3  1  0  0  0
  3  4  2  0  0  0
  4  6  1  0  0  0
  6  7  1  0  0  0
  7  8  1  0  0  0
  8  9  1  0  0  0
  9 12  1  0  0  0
 12 13  1  0  0  0
 13 14  2  0  0  0
 14 15  1  0  0  0
 15 16  2  0  0  0
 16 17  1  0  0  0
 17 18  2  0  0  0
 18 19  1  0  0  0
 19 20  2  0  0  0
 20 21  1  0  0  0
  9 10  1  0  0  0
 10 11  1  0  0  0
  4  5  1  0  0  0
 36 28  1  0  0  0
  5  1  1  0  0  0
 35 30  1  0  0  0
 11  6  1  0  0  0
 21 13  1  0  0  0
 21 16  1  0  0  0
 24 25  1  0  0  0
M  END
>  <minimizedAffinity>
-9.77632

>  <minimizedRMSD>
1.04135

>  <molecular weight>
465.382

$$$$
