


 37 42  0  0  0  0  0  0  0  0999 V2000
   -1.8697   -7.8542   44.5555 C   0  0  0  0  0  0  0  0  0  0  0  0
   -1.3972   -8.8938   43.9198 N   0  0  0  0  0  0  0  0  0  0  0  0
   -0.0604   -9.0993   44.2063 N   0  0  0  0  0  0  0  0  0  0  0  0
    0.4465   -8.1967   45.0259 C   0  0  0  0  0  0  0  0  0  0  0  0
   -0.7199   -6.9767   45.4479 S   0  0  0  0  0  0  0  0  0  0  0  0
    1.6945   -8.2486   45.5766 N   0  0  0  0  0  0  0  0  0  0  0  0
    1.9614   -8.9130   46.8434 C   0  0  0  0  0  0  0  0  0  0  0  0
    3.2648   -9.7067   46.7180 C   0  0  0  0  0  0  0  0  0  0  0  0
    4.4408   -8.8176   46.2660 C   0  0  0  0  0  0  0  0  0  0  0  0
    4.0411   -8.1045   44.9572 C   0  0  0  0  0  0  0  0  0  0  0  0
    2.7241   -7.3300   45.0860 C   0  0  0  0  0  0  0  0  0  0  0  0
    4.8515   -7.8593   47.4024 C   0  0  0  0  0  0  0  0  0  0  0  0
    6.3189   -7.6396   47.4812 C   0  0  0  0  0  0  0  0  0  0  0  0
    7.2392   -8.5833   47.5959 N   0  0  0  0  0  0  0  0  0  0  0  0
    8.4815   -7.9845   47.6150 N   0  0  0  0  0  0  0  0  0  0  0  0
    8.2756   -6.6970   47.5003 C   0  0  0  0  0  0  0  0  0  0  0  0
    9.2137   -5.6204   47.4526 C   0  0  0  0  0  0  0  0  0  0  0  0
    8.8171   -4.3799   47.3267 N   0  0  0  0  0  0  0  0  0  0  0  0
    7.4541   -4.1467   47.2353 C   0  0  0  0  0  0  0  0  0  0  0  0
    6.5147   -5.1076   47.2725 C   0  0  0  0  0  0  0  0  0  0  0  0
    6.9413   -6.4180   47.4123 N   0  0  0  0  0  0  0  0  0  0  0  0
   -4.0872   -7.6633   43.6748 C   0  0  0  0  0  0  0  0  0  0  0  0
   -3.9233   -8.3607   42.6837 O   0  0  0  0  0  0  0  0  0  0  0  0
   -3.1470   -7.3615   44.6338 N   0  0  0  0  0  0  0  0  0  0  0  0
   -3.3604   -6.7697   45.4220 H   0  0  0  0  0  0  0  0  0  0  0  0
   -4.2982   -2.9319   41.2558 C   0  0  0  0  0  0  0  0  0  0  0  0
   -5.2585   -3.7404   42.0754 C   0  0  0  0  0  0  0  0  0  0  0  0
   -6.5386   -3.2779   42.3621 C   0  0  0  0  0  0  0  0  0  0  0  0
   -7.4126   -4.0678   43.1138 C   0  0  0  0  0  0  0  0  0  0  0  0
   -7.0446   -5.3122   43.6067 C   0  0  0  0  0  0  0  0  0  0  0  0
   -7.9437   -5.9948   44.3354 N   0  0  0  0  0  0  0  0  0  0  0  0
   -7.6147   -7.2046   44.8369 C   0  0  0  0  0  0  0  0  0  0  0  0
   -8.6726   -7.9189   45.6222 C   0  0  0  0  0  0  0  0  0  0  0  0
   -6.3644   -7.7686   44.6524 C   0  0  0  0  0  0  0  0  0  0  0  0
   -5.4264   -7.0558   43.8997 C   0  0  0  0  0  0  0  0  0  0  0  0
   -5.7527   -5.7976   43.3369 C   0  0  0  0  0  0  0  0  0  0  0  0
   -4.8783   -4.9993   42.5534 C   0  0  0  0  0  0  0  0  0  0  0  0
 26 27  1  0  0  0
 27 28  1  0  0  0
 27 37  2  0  0  0
 28 29  2  0  0  0
 29 30  1  0  0  0
 30 31  1  0  0  0
 30 36  2  0  0  0
 31 32  2  0  0  0
 32 33  1  0  0  0
 32 34  1  0  0  0
 34 35  2  0  0  0
 35 22  1  0  0  0
 35 36  1  0  0  0
 22 23  2  0  0  0
 22 24  1  0  0  0
 24  1  1  0  0  0
 24 25  1  0  0  0
  1  2  2  0  0  0
  1  5  1  0  0  0
  2  3  1  0  0  0
  3  4  2  0  0  0
  4  6  1  0  0  0
  4  5  1  0  0  0
  6  7  1  0  0  0
  6 11  1  0  0  0
  7  8  1  0  0  0
  8  9  1  0  0  0
  9 12  1  0  0  0
  9 10  1  0  0  0
 12 13  1  0  0  0
 13 14  2  0  0  0
 13 21  1  0  0  0
 14 15  1  0  0  0
 15 16  2  0  0  0
 16 17  1  0  0  0
 16 21  1  0  0  0
 17 18  2  0  0  0
 18 19  1  0  0  0
 19 20  2  0  0  0
 20 21  1  0  0  0
 10 11  1  0  0  0
 36 37  1  0  0  0
M  END
>  <minimizedAffinity>
-10.9784

>  <minimizedRMSD>
0.12625

>  <molecular weight>
475.4

$$$$



 37 42  0  0  0  0  0  0  0  0999 V2000
   -1.8713   -7.8467   44.5512 C   0  0  0  0  0  0  0  0  0  0  0  0
   -1.4024   -8.8919   43.9224 N   0  0  0  0  0  0  0  0  0  0  0  0
   -0.0669   -9.1005   44.2107 N   0  0  0  0  0  0  0  0  0  0  0  0
    0.4427   -8.1974   45.0284 C   0  0  0  0  0  0  0  0  0  0  0  0
   -0.7195   -6.9713   45.4441 S   0  0  0  0  0  0  0  0  0  0  0  0
    1.6901   -8.2563   45.5810 N   0  0  0  0  0  0  0  0  0  0  0  0
    1.9570   -8.9323   46.8418 C   0  0  0  0  0  0  0  0  0  0  0  0
    3.2664   -9.7165   46.7136 C   0  0  0  0  0  0  0  0  0  0  0  0
    4.4390   -8.8194   46.2683 C   0  0  0  0  0  0  0  0  0  0  0  0
    4.0363   -8.0946   44.9672 C   0  0  0  0  0  0  0  0  0  0  0  0
    2.7169   -7.3268   45.1049 C   0  0  0  0  0  0  0  0  0  0  0  0
    4.8522   -7.8710   47.4124 C   0  0  0  0  0  0  0  0  0  0  0  0
    6.3186   -7.6435   47.4813 C   0  0  0  0  0  0  0  0  0  0  0  0
    7.2447   -8.5831   47.5973 N   0  0  0  0  0  0  0  0  0  0  0  0
    8.4846   -7.9772   47.6148 N   0  0  0  0  0  0  0  0  0  0  0  0
    8.2727   -6.6922   47.4962 C   0  0  0  0  0  0  0  0  0  0  0  0
    9.2039   -5.6102   47.4472 C   0  0  0  0  0  0  0  0  0  0  0  0
    8.8018   -4.3713   47.3148 N   0  0  0  0  0  0  0  0  0  0  0  0
    7.4389   -4.1442   47.2253 C   0  0  0  0  0  0  0  0  0  0  0  0
    6.5065   -5.1131   47.2683 C   0  0  0  0  0  0  0  0  0  0  0  0
    6.9368   -6.4204   47.4075 N   0  0  0  0  0  0  0  0  0  0  0  0
   -4.0911   -7.6636   43.6721 C   0  0  0  0  0  0  0  0  0  0  0  0
   -3.9278   -8.3658   42.6840 O   0  0  0  0  0  0  0  0  0  0  0  0
   -3.1475   -7.3499   44.6243 N   0  0  0  0  0  0  0  0  0  0  0  0
   -3.3564   -6.7412   45.4005 H   0  0  0  0  0  0  0  0  0  0  0  0
   -4.3042   -2.9296   41.2633 C   0  0  0  0  0  0  0  0  0  0  0  0
   -5.2661   -3.7395   42.0796 C   0  0  0  0  0  0  0  0  0  0  0  0
   -6.5475   -3.2794   42.3634 C   0  0  0  0  0  0  0  0  0  0  0  0
   -7.4211   -4.0702   43.1146 C   0  0  0  0  0  0  0  0  0  0  0  0
   -7.0516   -5.3139   43.6088 C   0  0  0  0  0  0  0  0  0  0  0  0
   -7.9500   -5.9974   44.3375 N   0  0  0  0  0  0  0  0  0  0  0  0
   -7.6197   -7.2070   44.8391 C   0  0  0  0  0  0  0  0  0  0  0  0
   -8.6793   -7.9250   45.6201 C   0  0  0  0  0  0  0  0  0  0  0  0
   -6.3682   -7.7692   44.6549 C   0  0  0  0  0  0  0  0  0  0  0  0
   -5.4310   -7.0565   43.9002 C   0  0  0  0  0  0  0  0  0  0  0  0
   -5.7589   -5.7981   43.3392 C   0  0  0  0  0  0  0  0  0  0  0  0
   -4.8848   -4.9981   42.5575 C   0  0  0  0  0  0  0  0  0  0  0  0
 26 27  1  0  0  0
 27 28  1  0  0  0
 27 37  2  0  0  0
 28 29  2  0  0  0
 29 30  1  0  0  0
 30 31  1  0  0  0
 30 36  2  0  0  0
 31 32  2  0  0  0
 32 33  1  0  0  0
 32 34  1  0  0  0
 34 35  2  0  0  0
 35 22  1  0  0  0
 35 36  1  0  0  0
 22 23  2  0  0  0
 22 24  1  0  0  0
 24  1  1  0  0  0
 24 25  1  0  0  0
  1  2  2  0  0  0
  1  5  1  0  0  0
  2  3  1  0  0  0
  3  4  2  0  0  0
  4  6  1  0  0  0
  4  5  1  0  0  0
  6  7  1  0  0  0
  6 11  1  0  0  0
  7  8  1  0  0  0
  8  9  1  0  0  0
  9 12  1  0  0  0
  9 10  1  0  0  0
 12 13  1  0  0  0
 13 14  2  0  0  0
 13 21  1  0  0  0
 14 15  1  0  0  0
 15 16  2  0  0  0
 16 17  1  0  0  0
 16 21  1  0  0  0
 17 18  2  0  0  0
 18 19  1  0  0  0
 19 20  2  0  0  0
 20 21  1  0  0  0
 10 11  1  0  0  0
 36 37  1  0  0  0
M  END
>  <minimizedAffinity>
-10.9564

>  <minimizedRMSD>
0.11925

>  <molecular weight>
475.4

$$$$



 37 42  0  0  0  0  0  0  0  0999 V2000
   -1.5817   -7.8753   44.4279 C   0  0  0  0  0  0  0  0  0  0  0  0
   -1.0375   -8.8912   43.8106 N   0  0  0  0  0  0  0  0  0  0  0  0
    0.2658   -9.0935   44.2339 N   0  0  0  0  0  0  0  0  0  0  0  0
    0.6722   -8.2091   45.1289 C   0  0  0  0  0  0  0  0  0  0  0  0
   -0.5943   -7.0984   45.5559 S   0  0  0  0  0  0  0  0  0  0  0  0
    1.9132   -8.1720   45.6983 N   0  0  0  0  0  0  0  0  0  0  0  0
    2.2248   -8.8582   46.9427 C   0  0  0  0  0  0  0  0  0  0  0  0
    3.4956   -9.6778   46.7347 C   0  0  0  0  0  0  0  0  0  0  0  0
    4.6682   -8.7811   46.3030 C   0  0  0  0  0  0  0  0  0  0  0  0
    4.2559   -8.0228   45.0209 C   0  0  0  0  0  0  0  0  0  0  0  0
    2.9336   -7.2598   45.1750 C   0  0  0  0  0  0  0  0  0  0  0  0
    5.0776   -7.8698   47.4755 C   0  0  0  0  0  0  0  0  0  0  0  0
    6.5289   -7.5715   47.5033 C   0  0  0  0  0  0  0  0  0  0  0  0
    7.5046   -8.4634   47.5181 N   0  0  0  0  0  0  0  0  0  0  0  0
    8.7123   -7.7935   47.5019 N   0  0  0  0  0  0  0  0  0  0  0  0
    8.4256   -6.5161   47.4647 C   0  0  0  0  0  0  0  0  0  0  0  0
    9.2926   -5.3811   47.4182 C   0  0  0  0  0  0  0  0  0  0  0  0
    8.8193   -4.1635   47.3706 N   0  0  0  0  0  0  0  0  0  0  0  0
    7.4408   -4.0083   47.3646 C   0  0  0  0  0  0  0  0  0  0  0  0
    6.5667   -5.0289   47.4036 C   0  0  0  0  0  0  0  0  0  0  0  0
    7.0742   -6.3144   47.4567 N   0  0  0  0  0  0  0  0  0  0  0  0
   -3.6190   -8.7140   42.6706 O   0  0  0  0  0  0  0  0  0  0  0  0
   -3.7504   -7.7491   43.4166 C   0  0  0  0  0  0  0  0  0  0  0  0
   -2.8193   -7.3065   44.3119 N   0  0  0  0  0  0  0  0  0  0  0  0
   -3.0030   -6.4692   44.8533 H   0  0  0  0  0  0  0  0  0  0  0  0
   -5.0012   -6.9277   43.3228 C   0  0  0  0  0  0  0  0  0  0  0  0
   -4.8420   -5.6105   42.8692 C   0  0  0  0  0  0  0  0  0  0  0  0
   -5.9134   -4.7123   42.8402 C   0  0  0  0  0  0  0  0  0  0  0  0
   -5.7206   -3.3828   42.4435 C   0  0  0  0  0  0  0  0  0  0  0  0
   -6.7743   -2.4741   42.4726 C   0  0  0  0  0  0  0  0  0  0  0  0
   -8.0391   -2.8922   42.8798 C   0  0  0  0  0  0  0  0  0  0  0  0
   -8.2537   -4.2213   43.2482 C   0  0  0  0  0  0  0  0  0  0  0  0
   -7.1966   -5.1460   43.2408 C   0  0  0  0  0  0  0  0  0  0  0  0
   -7.3734   -6.4821   43.6443 C   0  0  0  0  0  0  0  0  0  0  0  0
   -6.2827   -7.3578   43.7028 C   0  0  0  0  0  0  0  0  0  0  0  0
   -6.4897   -8.6347   44.1626 O   0  0  0  0  0  0  0  0  0  0  0  0
   -7.4364   -8.7406   44.3726 H   0  0  0  0  0  0  0  0  0  0  0  0
 22 23  2  0  0  0
 23 24  1  0  0  0
 23 26  1  0  0  0
 24  1  1  0  0  0
 24 25  1  0  0  0
  1  2  2  0  0  0
  1  5  1  0  0  0
  2  3  1  0  0  0
  3  4  2  0  0  0
  4  6  1  0  0  0
  4  5  1  0  0  0
  6  7  1  0  0  0
  6 11  1  0  0  0
  7  8  1  0  0  0
  8  9  1  0  0  0
  9 12  1  0  0  0
  9 10  1  0  0  0
 12 13  1  0  0  0
 13 14  2  0  0  0
 13 21  1  0  0  0
 14 15  1  0  0  0
 15 16  2  0  0  0
 16 17  1  0  0  0
 16 21  1  0  0  0
 17 18  2  0  0  0
 18 19  1  0  0  0
 19 20  2  0  0  0
 20 21  1  0  0  0
 10 11  1  0  0  0
 26 27  1  0  0  0
 26 35  2  0  0  0
 27 28  2  0  0  0
 28 29  1  0  0  0
 28 33  1  0  0  0
 29 30  2  0  0  0
 30 31  1  0  0  0
 31 32  2  0  0  0
 32 33  1  0  0  0
 33 34  2  0  0  0
 34 35  1  0  0  0
 35 36  1  0  0  0
 36 37  1  0  0  0
M  END
>  <minimizedAffinity>
-10.8055

>  <minimizedRMSD>
0.10312

>  <molecular weight>
466.39

$$$$



 35 40  0  0  0  0  0  0  0  0999 V2000
   -1.5805   -7.8228   44.3852 C   0  0  0  0  0  0  0  0  0  0  0  0
   -1.0785   -8.8318   43.7226 N   0  0  0  0  0  0  0  0  0  0  0  0
    0.2074   -9.1326   44.1574 N   0  0  0  0  0  0  0  0  0  0  0  0
    0.6559   -8.2775   45.0571 C   0  0  0  0  0  0  0  0  0  0  0  0
   -0.5943   -7.2058   45.6161 S   0  0  0  0  0  0  0  0  0  0  0  0
    1.9122   -8.2257   45.5786 N   0  0  0  0  0  0  0  0  0  0  0  0
    2.1898   -8.7644   46.9022 C   0  0  0  0  0  0  0  0  0  0  0  0
    3.4661   -9.5951   46.8031 C   0  0  0  0  0  0  0  0  0  0  0  0
    4.6431   -8.7357   46.3013 C   0  0  0  0  0  0  0  0  0  0  0  0
    4.2457   -8.0730   44.9593 C   0  0  0  0  0  0  0  0  0  0  0  0
    2.9128   -7.3106   45.0353 C   0  0  0  0  0  0  0  0  0  0  0  0
    5.0539   -7.7369   47.4023 C   0  0  0  0  0  0  0  0  0  0  0  0
    6.5156   -7.4999   47.4628 C   0  0  0  0  0  0  0  0  0  0  0  0
    7.4516   -8.4336   47.5058 N   0  0  0  0  0  0  0  0  0  0  0  0
    8.6834   -7.8162   47.5330 N   0  0  0  0  0  0  0  0  0  0  0  0
    8.4546   -6.5285   47.4938 C   0  0  0  0  0  0  0  0  0  0  0  0
    9.3722   -5.4345   47.4925 C   0  0  0  0  0  0  0  0  0  0  0  0
    8.9545   -4.1950   47.4366 N   0  0  0  0  0  0  0  0  0  0  0  0
    7.5844   -3.9786   47.3817 C   0  0  0  0  0  0  0  0  0  0  0  0
    6.6642   -4.9607   47.3885 C   0  0  0  0  0  0  0  0  0  0  0  0
    7.1142   -6.2662   47.4476 N   0  0  0  0  0  0  0  0  0  0  0  0
   -3.7751   -8.5834   42.7655 O   0  0  0  0  0  0  0  0  0  0  0  0
   -3.7529   -7.5445   43.4128 C   0  0  0  0  0  0  0  0  0  0  0  0
   -2.7507   -7.1278   44.2505 N   0  0  0  0  0  0  0  0  0  0  0  0
   -2.8041   -6.2585   44.7559 H   0  0  0  0  0  0  0  0  0  0  0  0
   -4.9221   -6.6216   43.3117 C   0  0  0  0  0  0  0  0  0  0  0  0
   -4.8556   -5.3686   42.6934 C   0  0  0  0  0  0  0  0  0  0  0  0
   -5.9941   -4.5555   42.6478 C   0  0  0  0  0  0  0  0  0  0  0  0
   -7.2039   -4.9554   43.1982 C   0  0  0  0  0  0  0  0  0  0  0  0
   -8.2616   -4.1310   43.1402 N   0  0  0  0  0  0  0  0  0  0  0  0
   -9.4231   -4.5513   43.6896 C   0  0  0  0  0  0  0  0  0  0  0  0
   -9.5874   -5.7792   44.3027 C   0  0  0  0  0  0  0  0  0  0  0  0
   -8.4956   -6.6319   44.3560 C   0  0  0  0  0  0  0  0  0  0  0  0
   -7.2739   -6.2280   43.8029 C   0  0  0  0  0  0  0  0  0  0  0  0
   -6.1400   -7.0558   43.8459 C   0  0  0  0  0  0  0  0  0  0  0  0
 22 23  2  0  0  0
 23 24  1  0  0  0
 23 26  1  0  0  0
 24  1  1  0  0  0
 24 25  1  0  0  0
  1  2  2  0  0  0
  1  5  1  0  0  0
  2  3  1  0  0  0
  3  4  2  0  0  0
  4  6  1  0  0  0
  4  5  1  0  0  0
  6  7  1  0  0  0
  6 11  1  0  0  0
  7  8  1  0  0  0
  8  9  1  0  0  0
  9 12  1  0  0  0
  9 10  1  0  0  0
 12 13  1  0  0  0
 13 14  2  0  0  0
 13 21  1  0  0  0
 14 15  1  0  0  0
 15 16  2  0  0  0
 16 17  1  0  0  0
 16 21  1  0  0  0
 17 18  2  0  0  0
 18 19  1  0  0  0
 19 20  2  0  0  0
 20 21  1  0  0  0
 10 11  1  0  0  0
 26 27  1  0  0  0
 26 35  2  0  0  0
 27 28  2  0  0  0
 28 29  1  0  0  0
 29 30  1  0  0  0
 29 34  2  0  0  0
 30 31  2  0  0  0
 31 32  1  0  0  0
 32 33  2  0  0  0
 33 34  1  0  0  0
 34 35  1  0  0  0
M  END
>  <minimizedAffinity>
-10.7134

>  <minimizedRMSD>
0.17691

>  <molecular weight>
451.379

$$$$



 35 40  0  0  0  0  0  0  0  0999 V2000
   -2.3042   -7.8315   44.0894 C   0  0  0  0  0  0  0  0  0  0  0  0
   -1.9880   -8.8562   43.3427 N   0  0  0  0  0  0  0  0  0  0  0  0
   -0.8024   -9.4386   43.7607 N   0  0  0  0  0  0  0  0  0  0  0  0
   -0.2296   -8.8017   44.7678 C   0  0  0  0  0  0  0  0  0  0  0  0
   -1.2516   -7.5364   45.3882 S   0  0  0  0  0  0  0  0  0  0  0  0
    1.0080   -9.0993   45.2991 N   0  0  0  0  0  0  0  0  0  0  0  0
    1.5128   -8.2021   46.3515 C   0  0  0  0  0  0  0  0  0  0  0  0
    2.7082   -8.8301   47.0587 C   0  0  0  0  0  0  0  0  0  0  0  0
    3.8372   -9.1866   46.0799 C   0  0  0  0  0  0  0  0  0  0  0  0
    3.2493  -10.1229   45.0113 C   0  0  0  0  0  0  0  0  0  0  0  0
    2.0141   -9.5400   44.3159 C   0  0  0  0  0  0  0  0  0  0  0  0
    4.5228   -7.9521   45.4473 C   0  0  0  0  0  0  0  0  0  0  0  0
    5.5699   -7.3822   46.3412 C   0  0  0  0  0  0  0  0  0  0  0  0
    6.3220   -8.0632   47.1916 N   0  0  0  0  0  0  0  0  0  0  0  0
    7.2544   -7.2038   47.7374 N   0  0  0  0  0  0  0  0  0  0  0  0
    7.0267   -6.0258   47.2134 C   0  0  0  0  0  0  0  0  0  0  0  0
    7.7092   -4.7853   47.4124 C   0  0  0  0  0  0  0  0  0  0  0  0
    7.3253   -3.6929   46.8028 N   0  0  0  0  0  0  0  0  0  0  0  0
    6.2295   -3.7793   45.9556 C   0  0  0  0  0  0  0  0  0  0  0  0
    5.5516   -4.9163   45.7100 C   0  0  0  0  0  0  0  0  0  0  0  0
    5.9666   -6.0677   46.3529 N   0  0  0  0  0  0  0  0  0  0  0  0
   -5.0072   -8.4807   43.5637 O   0  0  0  0  0  0  0  0  0  0  0  0
   -4.6207   -7.3345   43.7419 C   0  0  0  0  0  0  0  0  0  0  0  0
   -3.3330   -6.9314   43.9983 N   0  0  0  0  0  0  0  0  0  0  0  0
   -3.0683   -5.9591   43.9606 H   0  0  0  0  0  0  0  0  0  0  0  0
   -5.6116   -6.2372   43.6133 C   0  0  0  0  0  0  0  0  0  0  0  0
   -5.2285   -5.0772   42.9586 C   0  0  0  0  0  0  0  0  0  0  0  0
   -6.0508   -4.0208   42.7440 N   0  0  0  0  0  0  0  0  0  0  0  0
   -7.3232   -4.1158   43.1636 C   0  0  0  0  0  0  0  0  0  0  0  0
   -8.2022   -3.0742   42.9025 C   0  0  0  0  0  0  0  0  0  0  0  0
   -9.5428   -3.1294   43.2925 C   0  0  0  0  0  0  0  0  0  0  0  0
  -10.0191   -4.2430   43.9750 C   0  0  0  0  0  0  0  0  0  0  0  0
   -9.1563   -5.3016   44.2564 C   0  0  0  0  0  0  0  0  0  0  0  0
   -7.8110   -5.2531   43.8468 C   0  0  0  0  0  0  0  0  0  0  0  0
   -6.9263   -6.3217   44.0739 C   0  0  0  0  0  0  0  0  0  0  0  0
 22 23  2  0  0  0
 23 24  1  0  0  0
 23 26  1  0  0  0
 24  1  1  0  0  0
 24 25  1  0  0  0
  1  2  2  0  0  0
  1  5  1  0  0  0
  2  3  1  0  0  0
  3  4  2  0  0  0
  4  6  1  0  0  0
  4  5  1  0  0  0
  6  7  1  0  0  0
  6 11  1  0  0  0
  7  8  1  0  0  0
  8  9  1  0  0  0
  9 12  1  0  0  0
  9 10  1  0  0  0
 12 13  1  0  0  0
 13 14  2  0  0  0
 13 21  1  0  0  0
 14 15  1  0  0  0
 15 16  2  0  0  0
 16 17  1  0  0  0
 16 21  1  0  0  0
 17 18  2  0  0  0
 18 19  1  0  0  0
 19 20  2  0  0  0
 20 21  1  0  0  0
 10 11  1  0  0  0
 26 27  1  0  0  0
 26 35  2  0  0  0
 27 28  2  0  0  0
 28 29  1  0  0  0
 29 30  1  0  0  0
 29 34  2  0  0  0
 30 31  2  0  0  0
 31 32  1  0  0  0
 32 33  2  0  0  0
 33 34  1  0  0  0
 34 35  1  0  0  0
M  END
>  <minimizedAffinity>
-10.7015

>  <minimizedRMSD>
0.21442

>  <molecular weight>
451.379

$$$$



 37 42  0  0  0  0  0  0  0  0999 V2000
   -1.7737   -8.4701   44.5940 C   0  0  0  0  0  0  0  0  0  0  0  0
   -1.1590   -9.4621   44.0047 N   0  0  0  0  0  0  0  0  0  0  0  0
    0.1766   -9.5095   44.3684 N   0  0  0  0  0  0  0  0  0  0  0  0
    0.5332   -8.5378   45.1913 C   0  0  0  0  0  0  0  0  0  0  0  0
   -0.8179   -7.5341   45.6240 S   0  0  0  0  0  0  0  0  0  0  0  0
    1.7897   -8.3447   45.6912 N   0  0  0  0  0  0  0  0  0  0  0  0
    2.2048   -8.8603   46.9867 C   0  0  0  0  0  0  0  0  0  0  0  0
    3.5267   -9.6021   46.8077 C   0  0  0  0  0  0  0  0  0  0  0  0
    4.6064   -8.6762   46.2226 C   0  0  0  0  0  0  0  0  0  0  0  0
    4.0837   -8.1011   44.8867 C   0  0  0  0  0  0  0  0  0  0  0  0
    2.7127   -7.4251   45.0209 C   0  0  0  0  0  0  0  0  0  0  0  0
    4.9901   -7.6100   47.2658 C   0  0  0  0  0  0  0  0  0  0  0  0
    6.4544   -7.4246   47.3993 C   0  0  0  0  0  0  0  0  0  0  0  0
    7.3547   -8.3892   47.4798 N   0  0  0  0  0  0  0  0  0  0  0  0
    8.6085   -7.8147   47.5536 N   0  0  0  0  0  0  0  0  0  0  0  0
    8.4246   -6.5189   47.5021 C   0  0  0  0  0  0  0  0  0  0  0  0
    9.3777   -5.4544   47.5236 C   0  0  0  0  0  0  0  0  0  0  0  0
    9.0044   -4.2040   47.4479 N   0  0  0  0  0  0  0  0  0  0  0  0
    7.6459   -3.9427   47.3438 C   0  0  0  0  0  0  0  0  0  0  0  0
    6.6952   -4.8927   47.3150 C   0  0  0  0  0  0  0  0  0  0  0  0
    7.0969   -6.2135   47.3980 N   0  0  0  0  0  0  0  0  0  0  0  0
   -2.9423   -7.1920   42.3706 O   0  0  0  0  0  0  0  0  0  0  0  0
   -3.5594   -7.3959   43.4111 C   0  0  0  0  0  0  0  0  0  0  0  0
   -3.0668   -8.0340   44.5131 N   0  0  0  0  0  0  0  0  0  0  0  0
   -3.6411   -8.1134   45.3447 H   0  0  0  0  0  0  0  0  0  0  0  0
   -4.9542   -6.8614   43.5410 C   0  0  0  0  0  0  0  0  0  0  0  0
   -5.7976   -7.5459   44.4278 C   0  0  0  0  0  0  0  0  0  0  0  0
   -7.1494   -7.2125   44.5561 C   0  0  0  0  0  0  0  0  0  0  0  0
   -7.9899   -7.9493   45.4006 C   0  0  0  0  0  0  0  0  0  0  0  0
   -9.3479   -7.6553   45.4821 C   0  0  0  0  0  0  0  0  0  0  0  0
   -9.8758   -6.6057   44.7337 C   0  0  0  0  0  0  0  0  0  0  0  0
   -9.0449   -5.8430   43.9116 C   0  0  0  0  0  0  0  0  0  0  0  0
   -7.6760   -6.1382   43.8053 C   0  0  0  0  0  0  0  0  0  0  0  0
   -6.8215   -5.4126   42.9553 C   0  0  0  0  0  0  0  0  0  0  0  0
   -5.4793   -5.7832   42.8107 C   0  0  0  0  0  0  0  0  0  0  0  0
   -4.6977   -5.0865   41.9227 O   0  0  0  0  0  0  0  0  0  0  0  0
   -5.2375   -4.3812   41.5192 H   0  0  0  0  0  0  0  0  0  0  0  0
 22 23  2  0  0  0
 23 24  1  0  0  0
 23 26  1  0  0  0
 24  1  1  0  0  0
 24 25  1  0  0  0
  1  2  2  0  0  0
  1  5  1  0  0  0
  2  3  1  0  0  0
  3  4  2  0  0  0
  4  6  1  0  0  0
  4  5  1  0  0  0
  6  7  1  0  0  0
  6 11  1  0  0  0
  7  8  1  0  0  0
  8  9  1  0  0  0
  9 12  1  0  0  0
  9 10  1  0  0  0
 12 13  1  0  0  0
 13 14  2  0  0  0
 13 21  1  0  0  0
 14 15  1  0  0  0
 15 16  2  0  0  0
 16 17  1  0  0  0
 16 21  1  0  0  0
 17 18  2  0  0  0
 18 19  1  0  0  0
 19 20  2  0  0  0
 20 21  1  0  0  0
 10 11  1  0  0  0
 26 27  1  0  0  0
 26 35  2  0  0  0
 27 28  2  0  0  0
 28 29  1  0  0  0
 28 33  1  0  0  0
 29 30  2  0  0  0
 30 31  1  0  0  0
 31 32  2  0  0  0
 32 33  1  0  0  0
 33 34  2  0  0  0
 34 35  1  0  0  0
 35 36  1  0  0  0
 36 37  1  0  0  0
M  END
>  <minimizedAffinity>
-10.6421

>  <minimizedRMSD>
0.1233

>  <molecular weight>
466.39

$$$$



 37 41  0  0  0  0  0  0  0  0999 V2000
   -2.1983   -7.9791   43.9421 C   0  0  0  0  0  0  0  0  0  0  0  0
   -1.8926   -9.0859   43.3198 N   0  0  0  0  0  0  0  0  0  0  0  0
   -0.7105   -9.6209   43.8063 N   0  0  0  0  0  0  0  0  0  0  0  0
   -0.1775   -8.9106   44.7847 C   0  0  0  0  0  0  0  0  0  0  0  0
   -1.1223   -7.5136   45.1763 S   0  0  0  0  0  0  0  0  0  0  0  0
    1.0195   -9.1725   45.4045 N   0  0  0  0  0  0  0  0  0  0  0  0
    1.5023   -8.0908   46.2738 C   0  0  0  0  0  0  0  0  0  0  0  0
    2.6546   -8.5900   47.1493 C   0  0  0  0  0  0  0  0  0  0  0  0
    3.7967   -9.1996   46.3182 C   0  0  0  0  0  0  0  0  0  0  0  0
    3.2032  -10.3042   45.4268 C   0  0  0  0  0  0  0  0  0  0  0  0
    2.0512   -9.7983   44.5612 C   0  0  0  0  0  0  0  0  0  0  0  0
    4.5488   -8.1006   45.5388 C   0  0  0  0  0  0  0  0  0  0  0  0
    5.6168   -7.4490   46.3430 C   0  0  0  0  0  0  0  0  0  0  0  0
    6.4220   -8.0502   47.2029 N   0  0  0  0  0  0  0  0  0  0  0  0
    7.2655   -7.1060   47.7501 N   0  0  0  0  0  0  0  0  0  0  0  0
    6.9505   -5.9606   47.1988 C   0  0  0  0  0  0  0  0  0  0  0  0
    7.5089   -4.6600   47.4000 C   0  0  0  0  0  0  0  0  0  0  0  0
    7.0549   -3.6191   46.7523 N   0  0  0  0  0  0  0  0  0  0  0  0
    6.0128   -3.8198   45.8582 C   0  0  0  0  0  0  0  0  0  0  0  0
    5.4412   -5.0147   45.6204 C   0  0  0  0  0  0  0  0  0  0  0  0
    5.9255   -6.1116   46.3092 N   0  0  0  0  0  0  0  0  0  0  0  0
   -4.9321   -8.6157   43.3490 O   0  0  0  0  0  0  0  0  0  0  0  0
   -4.5096   -7.4732   43.4630 C   0  0  0  0  0  0  0  0  0  0  0  0
   -3.2262   -7.0965   43.7765 N   0  0  0  0  0  0  0  0  0  0  0  0
   -2.9687   -6.1294   43.8875 H   0  0  0  0  0  0  0  0  0  0  0  0
   -5.4616   -6.3324   43.2718 C   0  0  0  0  0  0  0  0  0  0  0  0
   -6.8066   -6.5069   43.6483 C   0  0  0  0  0  0  0  0  0  0  0  0
   -7.6957   -5.4416   43.5266 C   0  0  0  0  0  0  0  0  0  0  0  0
   -9.0098   -5.5446   43.8888 O   0  0  0  0  0  0  0  0  0  0  0  0
   -7.2598   -4.2172   43.0327 C   0  0  0  0  0  0  0  0  0  0  0  0
   -8.1186   -3.1587   42.9236 O   0  0  0  0  0  0  0  0  0  0  0  0
   -5.9419   -4.0541   42.6370 C   0  0  0  0  0  0  0  0  0  0  0  0
   -5.5076   -2.8567   42.1490 O   0  0  0  0  0  0  0  0  0  0  0  0
   -5.0410   -5.1033   42.7352 C   0  0  0  0  0  0  0  0  0  0  0  0
   -9.1726   -6.4519   44.2040 H   0  0  0  0  0  0  0  0  0  0  0  0
   -8.9748   -3.5085   43.2472 H   0  0  0  0  0  0  0  0  0  0  0  0
   -6.2949   -2.2754   42.1800 H   0  0  0  0  0  0  0  0  0  0  0  0
 22 23  2  0  0  0
 23 24  1  0  0  0
 23 26  1  0  0  0
 24  1  1  0  0  0
 24 25  1  0  0  0
  1  2  2  0  0  0
  1  5  1  0  0  0
  2  3  1  0  0  0
  3  4  2  0  0  0
  4  6  1  0  0  0
  4  5  1  0  0  0
  6  7  1  0  0  0
  6 11  1  0  0  0
  7  8  1  0  0  0
  8  9  1  0  0  0
  9 12  1  0  0  0
  9 10  1  0  0  0
 12 13  1  0  0  0
 13 14  2  0  0  0
 13 21  1  0  0  0
 14 15  1  0  0  0
 15 16  2  0  0  0
 16 17  1  0  0  0
 16 21  1  0  0  0
 17 18  2  0  0  0
 18 19  1  0  0  0
 19 20  2  0  0  0
 20 21  1  0  0  0
 10 11  1  0  0  0
 26 27  1  0  0  0
 26 34  2  0  0  0
 27 28  2  0  0  0
 28 29  1  0  0  0
 28 30  1  0  0  0
 29 35  1  0  0  0
 30 31  1  0  0  0
 30 32  2  0  0  0
 31 36  1  0  0  0
 32 33  1  0  0  0
 32 34  1  0  0  0
 33 37  1  0  0  0
M  END
>  <minimizedAffinity>
-10.6312

>  <minimizedRMSD>
0.13107

>  <molecular weight>
452.362

$$$$



 36 40  0  0  0  0  0  0  0  0999 V2000
   -1.6595   -7.8895   44.3748 C   0  0  0  0  0  0  0  0  0  0  0  0
   -1.1789   -8.9586   43.8000 N   0  0  0  0  0  0  0  0  0  0  0  0
    0.1303   -9.2062   44.2019 N   0  0  0  0  0  0  0  0  0  0  0  0
    0.6130   -8.2752   45.0060 C   0  0  0  0  0  0  0  0  0  0  0  0
   -0.5782   -7.0703   45.3918 S   0  0  0  0  0  0  0  0  0  0  0  0
    1.8572   -8.2526   45.5667 N   0  0  0  0  0  0  0  0  0  0  0  0
    2.1086   -8.8212   46.8839 C   0  0  0  0  0  0  0  0  0  0  0  0
    3.3908   -9.6503   46.8134 C   0  0  0  0  0  0  0  0  0  0  0  0
    4.5822   -8.7992   46.3355 C   0  0  0  0  0  0  0  0  0  0  0  0
    4.2126   -8.1493   44.9824 C   0  0  0  0  0  0  0  0  0  0  0  0
    2.8913   -7.3674   45.0323 C   0  0  0  0  0  0  0  0  0  0  0  0
    4.9750   -7.7926   47.4357 C   0  0  0  0  0  0  0  0  0  0  0  0
    6.4333   -7.5263   47.4934 C   0  0  0  0  0  0  0  0  0  0  0  0
    7.3868   -8.4406   47.5621 N   0  0  0  0  0  0  0  0  0  0  0  0
    8.6074   -7.7987   47.5783 N   0  0  0  0  0  0  0  0  0  0  0  0
    8.3543   -6.5162   47.5095 C   0  0  0  0  0  0  0  0  0  0  0  0
    9.2518   -5.4050   47.4826 C   0  0  0  0  0  0  0  0  0  0  0  0
    8.8103   -4.1761   47.3959 N   0  0  0  0  0  0  0  0  0  0  0  0
    7.4369   -3.9882   47.3300 C   0  0  0  0  0  0  0  0  0  0  0  0
    6.5355   -4.9876   47.3555 C   0  0  0  0  0  0  0  0  0  0  0  0
    7.0104   -6.2827   47.4486 N   0  0  0  0  0  0  0  0  0  0  0  0
   -3.9037   -7.7339   43.5119 C   0  0  0  0  0  0  0  0  0  0  0  0
   -3.8194   -8.6260   42.6784 O   0  0  0  0  0  0  0  0  0  0  0  0
   -2.8907   -7.2975   44.3274 N   0  0  0  0  0  0  0  0  0  0  0  0
   -3.0178   -6.5059   44.9435 H   0  0  0  0  0  0  0  0  0  0  0  0
   -8.5823   -7.8069   45.0259 N   0  0  0  0  0  0  0  0  0  0  0  0
   -7.5003   -7.0736   44.5178 C   0  0  0  0  0  0  0  0  0  0  0  0
   -6.2724   -7.7042   44.2890 C   0  0  0  0  0  0  0  0  0  0  0  0
   -5.2127   -7.0227   43.6643 C   0  0  0  0  0  0  0  0  0  0  0  0
   -5.4255   -5.7105   43.2254 C   0  0  0  0  0  0  0  0  0  0  0  0
   -4.4505   -5.0210   42.6113 F   0  0  0  0  0  0  0  0  0  0  0  0
   -6.6552   -5.0841   43.3939 C   0  0  0  0  0  0  0  0  0  0  0  0
   -7.6828   -5.7751   44.0216 C   0  0  0  0  0  0  0  0  0  0  0  0
   -8.8713   -5.1701   44.1725 F   0  0  0  0  0  0  0  0  0  0  0  0
   -8.3252   -8.5556   45.6628 H   0  0  0  0  0  0  0  0  0  0  0  0
   -9.3290   -7.2181   45.3908 H   0  0  0  0  0  0  0  0  0  0  0  0
 26 27  1  0  0  0
 26 35  1  0  0  0
 26 36  1  0  0  0
 27 28  1  0  0  0
 27 33  2  0  0  0
 28 29  2  0  0  0
 29 22  1  0  0  0
 29 30  1  0  0  0
 22 23  2  0  0  0
 22 24  1  0  0  0
 24  1  1  0  0  0
 24 25  1  0  0  0
  1  2  2  0  0  0
  1  5  1  0  0  0
  2  3  1  0  0  0
  3  4  2  0  0  0
  4  6  1  0  0  0
  4  5  1  0  0  0
  6  7  1  0  0  0
  6 11  1  0  0  0
  7  8  1  0  0  0
  8  9  1  0  0  0
  9 12  1  0  0  0
  9 10  1  0  0  0
 12 13  1  0  0  0
 13 14  2  0  0  0
 13 21  1  0  0  0
 14 15  1  0  0  0
 15 16  2  0  0  0
 16 17  1  0  0  0
 16 21  1  0  0  0
 17 18  2  0  0  0
 18 19  1  0  0  0
 19 20  2  0  0  0
 20 21  1  0  0  0
 10 11  1  0  0  0
 30 31  1  0  0  0
 30 32  2  0  0  0
 32 33  1  0  0  0
 33 34  1  0  0  0
M  END
>  <minimizedAffinity>
-10.6108

>  <minimizedRMSD>
0.07511

>  <molecular weight>
455.359

$$$$



 39 43  0  0  0  0  0  0  0  0999 V2000
   -1.8648   -7.8658   44.3347 C   0  0  0  0  0  0  0  0  0  0  0  0
   -1.3402   -8.8958   43.7226 N   0  0  0  0  0  0  0  0  0  0  0  0
   -0.0282   -9.1175   44.1405 N   0  0  0  0  0  0  0  0  0  0  0  0
    0.4084   -8.2121   44.9992 C   0  0  0  0  0  0  0  0  0  0  0  0
   -0.8336   -7.0731   45.4219 S   0  0  0  0  0  0  0  0  0  0  0  0
    1.6420   -8.1649   45.5820 N   0  0  0  0  0  0  0  0  0  0  0  0
    1.9107   -8.8132   46.8579 C   0  0  0  0  0  0  0  0  0  0  0  0
    3.1841   -9.6467   46.7190 C   0  0  0  0  0  0  0  0  0  0  0  0
    4.3773   -8.7783   46.2754 C   0  0  0  0  0  0  0  0  0  0  0  0
    3.9934   -8.0375   44.9731 C   0  0  0  0  0  0  0  0  0  0  0  0
    2.6729   -7.2564   45.0841 C   0  0  0  0  0  0  0  0  0  0  0  0
    4.8060   -7.8511   47.4301 C   0  0  0  0  0  0  0  0  0  0  0  0
    6.2743   -7.6442   47.5097 C   0  0  0  0  0  0  0  0  0  0  0  0
    7.1852   -8.5978   47.6136 N   0  0  0  0  0  0  0  0  0  0  0  0
    8.4344   -8.0125   47.6065 N   0  0  0  0  0  0  0  0  0  0  0  0
    8.2409   -6.7228   47.4915 C   0  0  0  0  0  0  0  0  0  0  0  0
    9.1912   -5.6566   47.4174 C   0  0  0  0  0  0  0  0  0  0  0  0
    8.8061   -4.4116   47.2986 N   0  0  0  0  0  0  0  0  0  0  0  0
    7.4439   -4.1606   47.2478 C   0  0  0  0  0  0  0  0  0  0  0  0
    6.4945   -5.1160   47.3128 C   0  0  0  0  0  0  0  0  0  0  0  0
    6.9098   -6.4267   47.4373 N   0  0  0  0  0  0  0  0  0  0  0  0
   -4.1065   -7.7214   43.4606 C   0  0  0  0  0  0  0  0  0  0  0  0
   -4.0140   -8.6439   42.6568 O   0  0  0  0  0  0  0  0  0  0  0  0
   -3.1011   -7.2870   44.2804 N   0  0  0  0  0  0  0  0  0  0  0  0
   -3.1972   -6.4164   44.7724 H   0  0  0  0  0  0  0  0  0  0  0  0
   -4.5385   -4.6717   42.3940 C   0  0  0  0  0  0  0  0  0  0  0  0
   -5.5718   -5.5219   43.0804 C   0  0  0  0  0  0  0  0  0  0  0  0
   -6.8632   -5.0861   43.3954 C   0  0  0  0  0  0  0  0  0  0  0  0
   -7.7555   -6.3091   44.1958 S   0  0  0  0  0  0  0  0  0  0  0  0
   -6.4810   -7.4227   44.1308 C   0  0  0  0  0  0  0  0  0  0  0  0
   -6.6607   -8.6724   44.6148 N   0  0  0  0  0  0  0  0  0  0  0  0
   -5.3392   -6.8999   43.5443 C   0  0  0  0  0  0  0  0  0  0  0  0
   -7.4302   -8.8433   45.2544 H   0  0  0  0  0  0  0  0  0  0  0  0
   -5.8267   -9.2226   44.8388 H   0  0  0  0  0  0  0  0  0  0  0  0
   -7.4961   -3.7897   43.1400 C   0  0  0  0  0  0  0  0  0  0  0  0
   -8.8574   -3.7765   43.0010 N   0  0  0  0  0  0  0  0  0  0  0  0
   -6.9012   -2.7181   43.0444 O   0  0  0  0  0  0  0  0  0  0  0  0
   -9.4108   -4.6155   43.0815 H   0  0  0  0  0  0  0  0  0  0  0  0
   -9.3121   -2.8875   42.8403 H   0  0  0  0  0  0  0  0  0  0  0  0
 26 27  1  0  0  0
 27 28  2  0  0  0
 27 32  1  0  0  0
 28 35  1  0  0  0
 28 29  1  0  0  0
 35 36  1  0  0  0
 35 37  2  0  0  0
 36 38  1  0  0  0
 36 39  1  0  0  0
 29 30  1  0  0  0
 30 31  1  0  0  0
 30 32  2  0  0  0
 31 33  1  0  0  0
 31 34  1  0  0  0
 32 22  1  0  0  0
 22 23  2  0  0  0
 22 24  1  0  0  0
 24  1  1  0  0  0
 24 25  1  0  0  0
  1  2  2  0  0  0
  1  5  1  0  0  0
  2  3  1  0  0  0
  3  4  2  0  0  0
  4  6  1  0  0  0
  4  5  1  0  0  0
  6  7  1  0  0  0
  6 11  1  0  0  0
  7  8  1  0  0  0
  8  9  1  0  0  0
  9 12  1  0  0  0
  9 10  1  0  0  0
 12 13  1  0  0  0
 13 14  2  0  0  0
 13 21  1  0  0  0
 14 15  1  0  0  0
 15 16  2  0  0  0
 16 17  1  0  0  0
 16 21  1  0  0  0
 17 18  2  0  0  0
 18 19  1  0  0  0
 19 20  2  0  0  0
 20 21  1  0  0  0
 10 11  1  0  0  0
M  END
>  <minimizedAffinity>
-10.5991

>  <minimizedRMSD>
0.05748

>  <molecular weight>
481.449

$$$$



 38 42  0  0  0  0  0  0  0  0999 V2000
   -1.5432   -7.9669   44.2508 C   0  0  0  0  0  0  0  0  0  0  0  0
   -1.0537   -9.0599   43.7292 N   0  0  0  0  0  0  0  0  0  0  0  0
    0.2312   -9.3133   44.2114 N   0  0  0  0  0  0  0  0  0  0  0  0
    0.6883   -8.3578   45.0015 C   0  0  0  0  0  0  0  0  0  0  0  0
   -0.5292   -7.1744   45.3571 S   0  0  0  0  0  0  0  0  0  0  0  0
    1.9239   -8.2874   45.5746 N   0  0  0  0  0  0  0  0  0  0  0  0
    2.1703   -8.8186   46.9094 C   0  0  0  0  0  0  0  0  0  0  0  0
    3.4714   -9.6196   46.8750 C   0  0  0  0  0  0  0  0  0  0  0  0
    4.6497   -8.7656   46.3674 C   0  0  0  0  0  0  0  0  0  0  0  0
    4.2677   -8.1377   45.0053 C   0  0  0  0  0  0  0  0  0  0  0  0
    2.9352   -7.3744   45.0518 C   0  0  0  0  0  0  0  0  0  0  0  0
    5.0583   -7.7324   47.4385 C   0  0  0  0  0  0  0  0  0  0  0  0
    6.5206   -7.4745   47.4546 C   0  0  0  0  0  0  0  0  0  0  0  0
    7.4711   -8.3963   47.5037 N   0  0  0  0  0  0  0  0  0  0  0  0
    8.6950   -7.7589   47.5436 N   0  0  0  0  0  0  0  0  0  0  0  0
    8.4462   -6.4727   47.4979 C   0  0  0  0  0  0  0  0  0  0  0  0
    9.3475   -5.3625   47.5077 C   0  0  0  0  0  0  0  0  0  0  0  0
    8.9107   -4.1300   47.4420 N   0  0  0  0  0  0  0  0  0  0  0  0
    7.5391   -3.9364   47.3649 C   0  0  0  0  0  0  0  0  0  0  0  0
    6.6358   -4.9342   47.3622 C   0  0  0  0  0  0  0  0  0  0  0  0
    7.1032   -6.2318   47.4318 N   0  0  0  0  0  0  0  0  0  0  0  0
   -3.7986   -7.7832   43.3771 C   0  0  0  0  0  0  0  0  0  0  0  0
   -3.8539   -8.8046   42.7095 O   0  0  0  0  0  0  0  0  0  0  0  0
   -2.7283   -7.3094   44.0945 N   0  0  0  0  0  0  0  0  0  0  0  0
   -2.7302   -6.3590   44.4336 H   0  0  0  0  0  0  0  0  0  0  0  0
   -7.2156   -5.1853   43.1203 C   0  0  0  0  0  0  0  0  0  0  0  0
   -5.9619   -4.7491   42.6919 C   0  0  0  0  0  0  0  0  0  0  0  0
   -4.8406   -5.5672   42.8231 C   0  0  0  0  0  0  0  0  0  0  0  0
   -4.9603   -6.8411   43.3901 C   0  0  0  0  0  0  0  0  0  0  0  0
   -6.1904   -7.2428   43.9192 C   0  0  0  0  0  0  0  0  0  0  0  0
   -7.3147   -6.4113   43.7906 C   0  0  0  0  0  0  0  0  0  0  0  0
   -9.8344   -2.6850   42.9062 N   0  0  0  0  0  0  0  0  0  0  0  0
   -8.6190   -3.1542   43.2978 C   0  0  0  0  0  0  0  0  0  0  0  0
   -7.8671   -2.4137   43.9203 O   0  0  0  0  0  0  0  0  0  0  0  0
   -8.3923   -4.4432   42.8787 N   0  0  0  0  0  0  0  0  0  0  0  0
  -10.0279   -1.7683   43.2929 H   0  0  0  0  0  0  0  0  0  0  0  0
  -10.6141   -3.3238   42.9519 H   0  0  0  0  0  0  0  0  0  0  0  0
   -8.9968   -4.7634   42.1366 H   0  0  0  0  0  0  0  0  0  0  0  0
 32 33  1  0  0  0
 32 36  1  0  0  0
 32 37  1  0  0  0
 33 34  2  0  0  0
 33 35  1  0  0  0
 35 26  1  0  0  0
 35 38  1  0  0  0
 26 27  1  0  0  0
 26 31  2  0  0  0
 27 28  2  0  0  0
 28 29  1  0  0  0
 29 22  1  0  0  0
 29 30  2  0  0  0
 22 23  2  0  0  0
 22 24  1  0  0  0
 24  1  1  0  0  0
 24 25  1  0  0  0
  1  2  2  0  0  0
  1  5  1  0  0  0
  2  3  1  0  0  0
  3  4  2  0  0  0
  4  6  1  0  0  0
  4  5  1  0  0  0
  6  7  1  0  0  0
  6 11  1  0  0  0
  7  8  1  0  0  0
  8  9  1  0  0  0
  9 12  1  0  0  0
  9 10  1  0  0  0
 12 13  1  0  0  0
 13 14  2  0  0  0
 13 21  1  0  0  0
 14 15  1  0  0  0
 15 16  2  0  0  0
 16 17  1  0  0  0
 16 21  1  0  0  0
 17 18  2  0  0  0
 18 19  1  0  0  0
 19 20  2  0  0  0
 20 21  1  0  0  0
 10 11  1  0  0  0
 30 31  1  0  0  0
M  END
>  <minimizedAffinity>
-10.5989

>  <minimizedRMSD>
0.23109

>  <molecular weight>
460.387

$$$$
