


 42 47  0  0  0  0  0  0  0  0999 V2000
   -8.5551    4.4052    7.1065 C   0  0  0  0  0  0  0  0  0  0  0  0
   -7.2759    4.8292    7.0238 N   0  0  0  0  0  0  0  0  0  0  0  0
   -6.8509    5.8254    7.8456 N   0  0  0  0  0  0  0  0  0  0  0  0
   -7.7156    6.3642    8.7319 C   0  0  0  0  0  0  0  0  0  0  0  0
   -9.0336    5.9573    8.8503 C   0  0  0  0  0  0  0  0  0  0  0  0
   -9.8959    6.5224    9.8051 N   0  0  0  0  0  0  0  0  0  0  0  0
  -11.1553    6.0723    9.9673 C   0  0  0  0  0  0  0  0  0  0  0  0
  -12.1092    6.3847   10.8167 N   0  0  0  0  0  0  0  0  0  0  0  0
  -13.1683    5.5507   10.5220 N   0  0  0  0  0  0  0  0  0  0  0  0
  -12.8761    4.7414    9.5095 N   0  0  0  0  0  0  0  0  0  0  0  0
  -11.6315    5.0850    9.1469 N   0  0  0  0  0  0  0  0  0  0  0  0
  -10.9140    4.4450    8.0453 C   0  0  0  0  0  0  0  0  0  0  0  0
   -9.4761    4.9413    7.9933 C   0  0  0  0  0  0  0  0  0  0  0  0
   -7.2231    7.3539    9.5408 O   0  0  0  0  0  0  0  0  0  0  0  0
   -9.5729    7.2631   10.3675 H   0  0  0  0  0  0  0  0  0  0  0  0
   -6.3304    7.6263    9.4574 H   0  0  0  0  0  0  0  0  0  0  0  0
  -11.6615    4.7386    6.7815 C   0  0  0  0  0  0  0  0  0  0  0  0
  -11.6856    6.0365    6.2709 C   0  0  0  0  0  0  0  0  0  0  0  0
  -12.3816    6.3099    5.0930 C   0  0  0  0  0  0  0  0  0  0  0  0
  -13.0553    5.2864    4.4277 C   0  0  0  0  0  0  0  0  0  0  0  0
  -13.0323    3.9878    4.9385 C   0  0  0  0  0  0  0  0  0  0  0  0
  -12.3342    3.7149    6.1161 C   0  0  0  0  0  0  0  0  0  0  0  0
  -12.4052    7.5758    4.5948 O   0  0  0  0  0  0  0  0  0  0  0  0
  -11.9526    8.2637    5.0418 H   0  0  0  0  0  0  0  0  0  0  0  0
   -8.8590    3.3251    6.1957 C   0  0  0  0  0  0  0  0  0  0  0  0
   -8.5334    1.9761    6.4167 C   0  0  0  0  0  0  0  0  0  0  0  0
   -9.0942    1.0228    5.1543 S   0  0  0  0  0  0  0  0  0  0  0  0
   -9.8210    2.3087    4.3460 C   0  0  0  0  0  0  0  0  0  0  0  0
   -9.6354    3.4785    5.0158 N   0  0  0  0  0  0  0  0  0  0  0  0
  -10.4123    2.2124    3.0397 N   0  0  0  0  0  0  0  0  0  0  0  0
  -10.5962    3.0465    2.5501 H   0  0  0  0  0  0  0  0  0  0  0  0
  -10.7502    0.9669    2.4085 C   0  0  0  0  0  0  0  0  0  0  0  0
  -11.2271   -0.1251    3.1563 C   0  0  0  0  0  0  0  0  0  0  0  0
  -11.5781   -1.3185    2.5172 C   0  0  0  0  0  0  0  0  0  0  0  0
  -11.4690   -1.4278    1.1282 C   0  0  0  0  0  0  0  0  0  0  0  0
  -11.8144   -2.5838    0.5101 F   0  0  0  0  0  0  0  0  0  0  0  0
  -11.0159   -0.3401    0.3756 C   0  0  0  0  0  0  0  0  0  0  0  0
  -10.6658    0.8550    1.0116 C   0  0  0  0  0  0  0  0  0  0  0  0
  -10.0558    4.7911    4.5020 C   0  0  0  0  0  0  0  0  0  0  0  0
   -8.9140    5.4523    3.7267 C   0  0  0  0  0  0  0  0  0  0  0  0
   -9.2747    6.7504    3.3415 O   0  0  0  0  0  0  0  0  0  0  0  0
  -10.0577    6.7124    2.7702 H   0  0  0  0  0  0  0  0  0  0  0  0
  1  2  2  0  0  0
  1 13  1  0  0  0
  1 25  1  0  0  0
  2  3  1  0  0  0
  3  4  2  0  0  0
  4  5  1  0  0  0
  4 14  1  0  0  0
  5  6  1  0  0  0
  5 13  2  0  0  0
  6  7  1  0  0  0
  7  8  2  0  0  0
  7 11  1  0  0  0
  8  9  1  0  0  0
  9 10  2  0  0  0
 10 11  1  0  0  0
 11 12  1  0  0  0
 12 13  1  0  0  0
 12 17  1  0  0  0
 17 18  2  0  0  0
 17 22  1  0  0  0
 18 19  1  0  0  0
 19 20  2  0  0  0
 19 23  1  0  0  0
 20 21  1  0  0  0
 21 22  2  0  0  0
 26 27  1  0  0  0
 27 28  1  0  0  0
 28 30  1  0  0  0
 30 32  1  0  0  0
 32 33  2  0  0  0
 33 34  1  0  0  0
 34 35  2  0  0  0
 35 36  1  0  0  0
 35 37  1  0  0  0
 37 38  2  0  0  0
 28 29  2  0  0  0
 29 39  1  0  0  0
 39 40  1  0  0  0
 40 41  1  0  0  0
 38 32  1  0  0  0
 25 26  2  0  0  0
 25 29  1  0  0  0
  6 15  1  0  0  0
 23 24  1  0  0  0
 14 16  1  0  0  0
 30 31  1  0  0  0
 41 42  1  0  0  0
M  CHG 1  29   1
M  END
> <minimizedAffinity>
-2.74087

> <minimizedRMSD>
1.26607

> <CNNscore>
0.9717288613

> <CNNaffinity>
9.3372926712

> <CNNgradient>
0.0067774476

$$$$
