


 44 49  0  0  0  0  0  0  0  0999 V2000
   -7.6477    4.9762    6.7898 C   0  0  0  0  0  0  0  0  0  0  0  0
   -6.4850    5.6175    7.0346 N   0  0  0  0  0  0  0  0  0  0  0  0
   -6.3989    6.4543    8.1026 N   0  0  0  0  0  0  0  0  0  0  0  0
   -7.4760    6.6202    8.8999 C   0  0  0  0  0  0  0  0  0  0  0  0
   -8.6850    5.9805    8.6857 C   0  0  0  0  0  0  0  0  0  0  0  0
   -9.7753    6.1562    9.5545 N   0  0  0  0  0  0  0  0  0  0  0  0
  -10.9251    5.4749    9.3848 C   0  0  0  0  0  0  0  0  0  0  0  0
  -12.0367    5.4174   10.0849 N   0  0  0  0  0  0  0  0  0  0  0  0
  -12.8469    4.5074    9.4370 N   0  0  0  0  0  0  0  0  0  0  0  0
  -12.2496    4.0148    8.3572 N   0  0  0  0  0  0  0  0  0  0  0  0
  -11.0628    4.6378    8.3102 N   0  0  0  0  0  0  0  0  0  0  0  0
  -10.0758    4.3997    7.2581 C   0  0  0  0  0  0  0  0  0  0  0  0
   -8.7789    5.1299    7.5765 C   0  0  0  0  0  0  0  0  0  0  0  0
   -7.3213    7.4650    9.9670 O   0  0  0  0  0  0  0  0  0  0  0  0
   -9.6974    6.7908   10.3032 H   0  0  0  0  0  0  0  0  0  0  0  0
   -6.5014    7.8959   10.1083 H   0  0  0  0  0  0  0  0  0  0  0  0
  -10.6745    4.8465    5.9604 C   0  0  0  0  0  0  0  0  0  0  0  0
  -10.9524    6.1970    5.7488 C   0  0  0  0  0  0  0  0  0  0  0  0
  -11.5097    6.6134    4.5394 C   0  0  0  0  0  0  0  0  0  0  0  0
  -11.7914    5.6793    3.5433 C   0  0  0  0  0  0  0  0  0  0  0  0
  -11.5145    4.3278    3.7547 C   0  0  0  0  0  0  0  0  0  0  0  0
  -10.9552    3.9124    4.9644 C   0  0  0  0  0  0  0  0  0  0  0  0
  -11.7808    7.9306    4.3328 O   0  0  0  0  0  0  0  0  0  0  0  0
  -11.5916    8.5585    5.0021 H   0  0  0  0  0  0  0  0  0  0  0  0
   -7.5863    4.1000    5.6422 C   0  0  0  0  0  0  0  0  0  0  0  0
   -6.7950    2.9870    5.5971 N   0  0  0  0  0  0  0  0  0  0  0  0
   -6.7436    2.1605    4.5521 N   0  0  0  0  0  0  0  0  0  0  0  0
   -7.5180    2.3752    3.4580 C   0  0  0  0  0  0  0  0  0  0  0  0
   -8.3483    3.4475    3.4227 N   0  0  0  0  0  0  0  0  0  0  0  0
   -8.4157    4.3033    4.4730 C   0  0  0  0  0  0  0  0  0  0  0  0
   -9.2513    5.4121    4.4034 O   0  0  0  0  0  0  0  0  0  0  0  0
   -7.4378    1.2550    2.0659 S   0  0  0  0  0  0  0  0  0  0  0  0
   -6.1205    2.1997    1.2328 C   0  0  0  0  0  0  0  0  0  0  0  0
   -5.7893    1.5596   -0.0783 C   0  0  0  0  0  0  0  0  0  0  0  0
   -4.6619    1.0168   -0.2331 O   0  0  0  0  0  0  0  0  0  0  0  0
   -6.7625    1.5428   -1.1354 N   0  0  0  0  0  0  0  0  0  0  0  0
   -7.6734    1.8534   -0.9283 H   0  0  0  0  0  0  0  0  0  0  0  0
   -6.4904    1.1013   -2.4764 C   0  0  0  0  0  0  0  0  0  0  0  0
   -5.2522    1.3525   -3.0963 C   0  0  0  0  0  0  0  0  0  0  0  0
   -5.0232    0.9329   -4.4106 C   0  0  0  0  0  0  0  0  0  0  0  0
   -6.0295    0.2723   -5.1221 C   0  0  0  0  0  0  0  0  0  0  0  0
   -5.7404   -0.2511   -6.7712 Cl  0  0  0  0  0  0  0  0  0  0  0  0
   -7.2701    0.0397   -4.5209 C   0  0  0  0  0  0  0  0  0  0  0  0
   -7.5020    0.4591   -3.2074 C   0  0  0  0  0  0  0  0  0  0  0  0
  1  2  2  0  0  0
  1 13  1  0  0  0
  1 25  1  0  0  0
  2  3  1  0  0  0
  3  4  2  0  0  0
  4  5  1  0  0  0
  4 14  1  0  0  0
  5  6  1  0  0  0
  5 13  2  0  0  0
  6  7  1  0  0  0
  7  8  2  0  0  0
  7 11  1  0  0  0
  8  9  1  0  0  0
  9 10  2  0  0  0
 10 11  1  0  0  0
 11 12  1  0  0  0
 12 13  1  0  0  0
 12 17  1  0  0  0
 17 18  2  0  0  0
 17 22  1  0  0  0
 18 19  1  0  0  0
 19 20  2  0  0  0
 19 23  1  0  0  0
 20 21  1  0  0  0
 21 22  2  0  0  0
 26 27  2  0  0  0
 27 28  1  0  0  0
 28 32  1  0  0  0
 32 33  1  0  0  0
 33 34  1  0  0  0
 34 35  2  0  0  0
 34 36  1  0  0  0
 36 38  1  0  0  0
 38 39  2  0  0  0
 39 40  1  0  0  0
 40 41  2  0  0  0
 41 42  1  0  0  0
 41 43  1  0  0  0
 43 44  2  0  0  0
 28 29  2  0  0  0
 29 30  1  0  0  0
 30 31  1  0  0  0
 44 38  1  0  0  0
 25 26  1  0  0  0
 25 30  2  0  0  0
  6 15  1  0  0  0
 23 24  1  0  0  0
 14 16  1  0  0  0
 36 37  1  0  0  0
M  CHG 1  31  -1
M  END
> <minimizedAffinity>
-6.05778

> <minimizedRMSD>
0.91177

> <CNNscore>
0.8579733372

> <CNNaffinity>
7.2287111282

> <CNNgradient>
0.0788980052

$$$$



 44 49  0  0  0  0  0  0  0  0999 V2000
   -8.0547    5.0399    6.6018 C   0  0  0  0  0  0  0  0  0  0  0  0
   -6.8869    5.6887    6.7980 N   0  0  0  0  0  0  0  0  0  0  0  0
   -6.7212    6.4347    7.9224 N   0  0  0  0  0  0  0  0  0  0  0  0
   -7.7255    6.5046    8.8223 C   0  0  0  0  0  0  0  0  0  0  0  0
   -8.9366    5.8536    8.6607 C   0  0  0  0  0  0  0  0  0  0  0  0
   -9.9478    5.9268    9.6337 N   0  0  0  0  0  0  0  0  0  0  0  0
  -11.0952    5.2321    9.5073 C   0  0  0  0  0  0  0  0  0  0  0  0
  -12.1383    5.0867   10.2947 N   0  0  0  0  0  0  0  0  0  0  0  0
  -12.9860    4.2134    9.6444 N   0  0  0  0  0  0  0  0  0  0  0  0
  -12.4787    3.8292    8.4780 N   0  0  0  0  0  0  0  0  0  0  0  0
  -11.3128    4.4849    8.3809 N   0  0  0  0  0  0  0  0  0  0  0  0
  -10.4197    4.3623    7.2297 C   0  0  0  0  0  0  0  0  0  0  0  0
   -9.1135    5.0971    7.4949 C   0  0  0  0  0  0  0  0  0  0  0  0
   -7.4917    7.2605    9.9405 O   0  0  0  0  0  0  0  0  0  0  0  0
   -9.8150    6.4980   10.4245 H   0  0  0  0  0  0  0  0  0  0  0  0
   -6.6707    7.6995   10.0460 H   0  0  0  0  0  0  0  0  0  0  0  0
  -11.1406    4.9007    6.0328 C   0  0  0  0  0  0  0  0  0  0  0  0
  -11.2697    6.2785    5.8579 C   0  0  0  0  0  0  0  0  0  0  0  0
  -11.9409    6.7802    4.7423 C   0  0  0  0  0  0  0  0  0  0  0  0
  -12.4849    5.9042    3.8037 C   0  0  0  0  0  0  0  0  0  0  0  0
  -12.3569    4.5255    3.9787 C   0  0  0  0  0  0  0  0  0  0  0  0
  -11.6837    4.0246    5.0943 C   0  0  0  0  0  0  0  0  0  0  0  0
  -12.0668    8.1241    4.5713 O   0  0  0  0  0  0  0  0  0  0  0  0
  -11.7013    8.7129    5.2019 H   0  0  0  0  0  0  0  0  0  0  0  0
   -8.0799    4.2652    5.3821 C   0  0  0  0  0  0  0  0  0  0  0  0
   -8.1873    2.9031    5.3677 N   0  0  0  0  0  0  0  0  0  0  0  0
   -8.2297    2.1786    4.2492 N   0  0  0  0  0  0  0  0  0  0  0  0
   -8.1918    2.7775    3.0314 C   0  0  0  0  0  0  0  0  0  0  0  0
   -8.1083    4.1291    2.9506 N   0  0  0  0  0  0  0  0  0  0  0  0
   -8.0610    4.8867    4.0746 C   0  0  0  0  0  0  0  0  0  0  0  0
   -7.9427    6.2677    3.9680 O   0  0  0  0  0  0  0  0  0  0  0  0
   -8.2601    1.7869    1.5406 S   0  0  0  0  0  0  0  0  0  0  0  0
   -6.5164    2.0695    1.0719 C   0  0  0  0  0  0  0  0  0  0  0  0
   -6.2931    3.5121    0.7104 C   0  0  0  0  0  0  0  0  0  0  0  0
   -6.6183    4.4100    1.5317 O   0  0  0  0  0  0  0  0  0  0  0  0
   -5.7631    3.8975   -0.5671 N   0  0  0  0  0  0  0  0  0  0  0  0
   -6.0801    4.7433   -0.9588 H   0  0  0  0  0  0  0  0  0  0  0  0
   -4.8016    3.1330   -1.3131 C   0  0  0  0  0  0  0  0  0  0  0  0
   -3.8455    2.3291   -0.6656 C   0  0  0  0  0  0  0  0  0  0  0  0
   -2.9016    1.6164   -1.4113 C   0  0  0  0  0  0  0  0  0  0  0  0
   -2.8929    1.7115   -2.8065 C   0  0  0  0  0  0  0  0  0  0  0  0
   -1.7067    0.8184   -3.7404 Cl  0  0  0  0  0  0  0  0  0  0  0  0
   -3.8249    2.5275   -3.4555 C   0  0  0  0  0  0  0  0  0  0  0  0
   -4.7699    3.2412   -2.7117 C   0  0  0  0  0  0  0  0  0  0  0  0
  1  2  2  0  0  0
  1 13  1  0  0  0
  1 25  1  0  0  0
  2  3  1  0  0  0
  3  4  2  0  0  0
  4  5  1  0  0  0
  4 14  1  0  0  0
  5  6  1  0  0  0
  5 13  2  0  0  0
  6  7  1  0  0  0
  7  8  2  0  0  0
  7 11  1  0  0  0
  8  9  1  0  0  0
  9 10  2  0  0  0
 10 11  1  0  0  0
 11 12  1  0  0  0
 12 13  1  0  0  0
 12 17  1  0  0  0
 17 18  2  0  0  0
 17 22  1  0  0  0
 18 19  1  0  0  0
 19 20  2  0  0  0
 19 23  1  0  0  0
 20 21  1  0  0  0
 21 22  2  0  0  0
 26 27  2  0  0  0
 27 28  1  0  0  0
 28 32  1  0  0  0
 32 33  1  0  0  0
 33 34  1  0  0  0
 34 35  2  0  0  0
 34 36  1  0  0  0
 36 38  1  0  0  0
 38 39  2  0  0  0
 39 40  1  0  0  0
 40 41  2  0  0  0
 41 42  1  0  0  0
 41 43  1  0  0  0
 43 44  2  0  0  0
 28 29  2  0  0  0
 29 30  1  0  0  0
 30 31  1  0  0  0
 44 38  1  0  0  0
 25 26  1  0  0  0
 25 30  2  0  0  0
  6 15  1  0  0  0
 23 24  1  0  0  0
 14 16  1  0  0  0
 36 37  1  0  0  0
M  CHG 1  31  -1
M  END
> <minimizedAffinity>
-5.91873

> <minimizedRMSD>
1.19568

> <CNNscore>
0.8897560835

> <CNNaffinity>
7.0633821487

> <CNNgradient>
0.0578878745

$$$$



 30 34  0  0  0  0  0  0  0  0999 V2000
   -7.7688    4.8560    6.6862 C   0  0  0  0  0  0  0  0  0  0  0  0
   -6.5734    5.4539    6.8772 N   0  0  0  0  0  0  0  0  0  0  0  0
   -6.4095    6.2898    7.9369 N   0  0  0  0  0  0  0  0  0  0  0  0
   -7.4437    6.4980    8.7797 C   0  0  0  0  0  0  0  0  0  0  0  0
   -8.6839    5.9034    8.6212 C   0  0  0  0  0  0  0  0  0  0  0  0
   -9.7279    6.1222    9.5361 N   0  0  0  0  0  0  0  0  0  0  0  0
  -10.9086    5.4838    9.4196 C   0  0  0  0  0  0  0  0  0  0  0  0
  -11.9898    5.4698   10.1679 N   0  0  0  0  0  0  0  0  0  0  0  0
  -12.8609    4.5891    9.5599 N   0  0  0  0  0  0  0  0  0  0  0  0
  -12.3302    4.0716    8.4572 N   0  0  0  0  0  0  0  0  0  0  0  0
  -11.1243    4.6496    8.3557 N   0  0  0  0  0  0  0  0  0  0  0  0
  -10.1938    4.3719    7.2625 C   0  0  0  0  0  0  0  0  0  0  0  0
   -8.8579    5.0540    7.5209 C   0  0  0  0  0  0  0  0  0  0  0  0
   -7.2111    7.3393    9.8354 O   0  0  0  0  0  0  0  0  0  0  0  0
   -9.5936    6.7553   10.2779 H   0  0  0  0  0  0  0  0  0  0  0  0
   -6.3703    7.7396    9.9389 H   0  0  0  0  0  0  0  0  0  0  0  0
  -10.8317    4.8374    5.9903 C   0  0  0  0  0  0  0  0  0  0  0  0
  -11.2493    6.1622    5.8635 C   0  0  0  0  0  0  0  0  0  0  0  0
  -11.8431    6.5960    4.6778 C   0  0  0  0  0  0  0  0  0  0  0  0
  -12.0216    5.7045    3.6207 C   0  0  0  0  0  0  0  0  0  0  0  0
  -11.6050    4.3786    3.7473 C   0  0  0  0  0  0  0  0  0  0  0  0
  -11.0093    3.9460    4.9333 C   0  0  0  0  0  0  0  0  0  0  0  0
  -12.2503    7.8883    4.5538 O   0  0  0  0  0  0  0  0  0  0  0  0
  -12.1304    8.4875    5.2641 H   0  0  0  0  0  0  0  0  0  0  0  0
   -7.7904    3.9750    5.5408 C   0  0  0  0  0  0  0  0  0  0  0  0
   -7.6032    2.6035    5.4685 C   0  0  0  0  0  0  0  0  0  0  0  0
   -7.8295    2.2100    4.1643 C   0  0  0  0  0  0  0  0  0  0  0  0
   -8.1698    3.2499    3.4359 O   0  0  0  0  0  0  0  0  0  0  0  0
   -8.1782    4.3177    4.2006 C   0  0  0  0  0  0  0  0  0  0  0  0
   -8.4907    5.6901    3.7003 C   0  0  0  0  0  0  0  0  0  0  0  0
  1  2  2  0  0  0
  1 13  1  0  0  0
  1 25  1  0  0  0
  2  3  1  0  0  0
  3  4  2  0  0  0
  4  5  1  0  0  0
  4 14  1  0  0  0
  5  6  1  0  0  0
  5 13  2  0  0  0
  6  7  1  0  0  0
  7  8  2  0  0  0
  7 11  1  0  0  0
  8  9  1  0  0  0
  9 10  2  0  0  0
 10 11  1  0  0  0
 11 12  1  0  0  0
 12 13  1  0  0  0
 12 17  1  0  0  0
 17 18  2  0  0  0
 17 22  1  0  0  0
 18 19  1  0  0  0
 19 20  2  0  0  0
 19 23  1  0  0  0
 20 21  1  0  0  0
 21 22  2  0  0  0
 26 27  2  0  0  0
 27 28  1  0  0  0
 28 29  1  0  0  0
 29 30  1  0  0  0
 25 26  1  0  0  0
 25 29  2  0  0  0
  6 15  1  0  0  0
 23 24  1  0  0  0
 14 16  1  0  0  0
M  END
> <minimizedAffinity>
-7.58668

> <minimizedRMSD>
0.55493

> <CNNscore>
0.9572710991

> <CNNaffinity>
6.7369747162

> <CNNgradient>
0.0080128266

$$$$



 40 46  0  0  0  0  0  0  0  0999 V2000
   -7.6410    4.9930    6.8080 C   0  0  0  0  0  0  0  0  0  0  0  0
   -6.4520    5.6300    6.8680 N   0  0  0  0  0  0  0  0  0  0  0  0
   -6.2260    6.5240    7.8670 N   0  0  0  0  0  0  0  0  0  0  0  0
   -7.1930    6.7500    8.7820 C   0  0  0  0  0  0  0  0  0  0  0  0
   -8.4240    6.1170    8.7580 C   0  0  0  0  0  0  0  0  0  0  0  0
   -9.3950    6.3570    9.7450 N   0  0  0  0  0  0  0  0  0  0  0  0
  -10.5620    5.6840    9.7600 C   0  0  0  0  0  0  0  0  0  0  0  0
  -11.5770    5.6820   10.5960 N   0  0  0  0  0  0  0  0  0  0  0  0
  -12.4690    4.7490   10.1080 N   0  0  0  0  0  0  0  0  0  0  0  0
  -12.0160    4.1880    8.9920 N   0  0  0  0  0  0  0  0  0  0  0  0
  -10.8400    4.7900    8.7610 N   0  0  0  0  0  0  0  0  0  0  0  0
   -9.9950    4.4790    7.6090 C   0  0  0  0  0  0  0  0  0  0  0  0
   -8.6630    5.2070    7.7200 C   0  0  0  0  0  0  0  0  0  0  0  0
   -6.8990    7.6510    9.7710 O   0  0  0  0  0  0  0  0  0  0  0  0
   -9.2187    7.0313   10.4403 H   0  0  0  0  0  0  0  0  0  0  0  0
   -6.0646    8.0772    9.7836 H   0  0  0  0  0  0  0  0  0  0  0  0
   -7.7310    4.0530    5.7140 C   0  0  0  0  0  0  0  0  0  0  0  0
   -7.0592    2.8129    5.7313 C   0  0  0  0  0  0  0  0  0  0  0  0
   -7.2550    1.8305    4.7463 C   0  0  0  0  0  0  0  0  0  0  0  0
   -8.1670    2.0526    3.7609 N   0  0  0  0  0  0  0  0  0  0  0  0
   -8.8858    3.2021    3.6759 C   0  0  0  0  0  0  0  0  0  0  0  0
   -9.7934    3.3752    2.6247 C   0  0  0  0  0  0  0  0  0  0  0  0
  -10.5197    4.5628    2.5134 C   0  0  0  0  0  0  0  0  0  0  0  0
  -10.3386    5.5853    3.4471 C   0  0  0  0  0  0  0  0  0  0  0  0
   -9.4368    5.4234    4.5028 C   0  0  0  0  0  0  0  0  0  0  0  0
   -8.7094    4.2231    4.6394 C   0  0  0  0  0  0  0  0  0  0  0  0
   -6.5102    0.5457    4.7682 C   0  0  0  0  0  0  0  0  0  0  0  0
   -5.2096    0.4593    5.3049 C   0  0  0  0  0  0  0  0  0  0  0  0
   -4.5242   -0.7597    5.3088 C   0  0  0  0  0  0  0  0  0  0  0  0
   -5.1222   -1.9025    4.7741 C   0  0  0  0  0  0  0  0  0  0  0  0
   -6.4053   -1.8282    4.2288 C   0  0  0  0  0  0  0  0  0  0  0  0
   -7.0953   -0.6123    4.2211 C   0  0  0  0  0  0  0  0  0  0  0  0
  -10.7490    4.8610    6.3730 C   0  0  0  0  0  0  0  0  0  0  0  0
  -11.0350    6.2020    6.1170 C   0  0  0  0  0  0  0  0  0  0  0  0
  -11.7370    6.5580    4.9650 C   0  0  0  0  0  0  0  0  0  0  0  0
  -12.1550    5.5730    4.0710 C   0  0  0  0  0  0  0  0  0  0  0  0
  -11.8700    4.2310    4.3270 C   0  0  0  0  0  0  0  0  0  0  0  0
  -11.1660    3.8760    5.4790 C   0  0  0  0  0  0  0  0  0  0  0  0
  -12.0160    7.8660    4.7150 O   0  0  0  0  0  0  0  0  0  0  0  0
  -11.7352    8.5280    5.3157 H   0  0  0  0  0  0  0  0  0  0  0  0
  1  2  2  0  0  0
  1 13  1  0  0  0
  1 17  1  0  0  0
  2  3  1  0  0  0
  3  4  2  0  0  0
  4  5  1  0  0  0
  4 14  1  0  0  0
  5  6  1  0  0  0
  5 13  2  0  0  0
  6  7  1  0  0  0
  7  8  2  0  0  0
  7 11  1  0  0  0
  8  9  1  0  0  0
  9 10  2  0  0  0
 10 11  1  0  0  0
 11 12  1  0  0  0
 12 13  1  0  0  0
 12 33  1  0  0  0
 33 34  2  0  0  0
 33 38  1  0  0  0
 34 35  1  0  0  0
 35 36  2  0  0  0
 35 39  1  0  0  0
 36 37  1  0  0  0
 37 38  2  0  0  0
 18 19  2  0  0  0
 19 27  1  0  0  0
 27 28  2  0  0  0
 28 29  1  0  0  0
 29 30  2  0  0  0
 30 31  1  0  0  0
 31 32  2  0  0  0
 19 20  1  0  0  0
 20 21  2  0  0  0
 21 22  1  0  0  0
 22 23  2  0  0  0
 23 24  1  0  0  0
 24 25  2  0  0  0
 25 26  1  0  0  0
 32 27  1  0  0  0
 26 21  1  0  0  0
 17 18  1  0  0  0
 17 26  2  0  0  0
  6 15  1  0  0  0
 39 40  1  0  0  0
 14 16  1  0  0  0
M  END
> <minimizedAffinity>
-8.12554

> <minimizedRMSD>
0.00000

> <CNNscore>
0.9521618485

> <CNNaffinity>
7.2181177139

> <CNNgradient>
0.0101719480

$$$$



 33 37  0  0  0  0  0  0  0  0999 V2000
   -7.5118    5.1085    6.8192 C   0  0  0  0  0  0  0  0  0  0  0  0
   -6.3698    5.7970    7.0315 N   0  0  0  0  0  0  0  0  0  0  0  0
   -6.2914    6.6445    8.0917 N   0  0  0  0  0  0  0  0  0  0  0  0
   -7.3549    6.7738    8.9137 C   0  0  0  0  0  0  0  0  0  0  0  0
   -8.5423    6.0853    8.7331 C   0  0  0  0  0  0  0  0  0  0  0  0
   -9.6176    6.2244    9.6269 N   0  0  0  0  0  0  0  0  0  0  0  0
  -10.7433    5.4970    9.4895 C   0  0  0  0  0  0  0  0  0  0  0  0
  -11.8346    5.4010   10.2168 N   0  0  0  0  0  0  0  0  0  0  0  0
  -12.6234    4.4549    9.5947 N   0  0  0  0  0  0  0  0  0  0  0  0
  -12.0331    3.9782    8.5040 N   0  0  0  0  0  0  0  0  0  0  0  0
  -10.8734    4.6471    8.4241 N   0  0  0  0  0  0  0  0  0  0  0  0
   -9.9032    4.4402    7.3500 C   0  0  0  0  0  0  0  0  0  0  0  0
   -8.6290    5.2234    7.6321 C   0  0  0  0  0  0  0  0  0  0  0  0
   -7.2082    7.6320    9.9712 O   0  0  0  0  0  0  0  0  0  0  0  0
   -9.5470    6.8671   10.3693 H   0  0  0  0  0  0  0  0  0  0  0  0
   -6.4028    8.0960   10.0898 H   0  0  0  0  0  0  0  0  0  0  0  0
  -10.5501    4.8533    6.0643 C   0  0  0  0  0  0  0  0  0  0  0  0
  -10.9406    6.1788    5.8744 C   0  0  0  0  0  0  0  0  0  0  0  0
  -11.5428    6.5639    4.6762 C   0  0  0  0  0  0  0  0  0  0  0  0
  -11.7566    5.6231    3.6696 C   0  0  0  0  0  0  0  0  0  0  0  0
  -11.3670    4.2964    3.8592 C   0  0  0  0  0  0  0  0  0  0  0  0
  -10.7629    3.9126    5.0578 C   0  0  0  0  0  0  0  0  0  0  0  0
  -11.9238    7.8568    4.4907 O   0  0  0  0  0  0  0  0  0  0  0  0
  -11.7802    8.4892    5.1671 H   0  0  0  0  0  0  0  0  0  0  0  0
   -7.4433    4.2268    5.6762 C   0  0  0  0  0  0  0  0  0  0  0  0
   -6.9437    2.8983    5.7385 C   0  0  0  0  0  0  0  0  0  0  0  0
   -7.0208    1.9830    4.6878 C   0  0  0  0  0  0  0  0  0  0  0  0
   -7.6870    2.3243    3.5114 C   0  0  0  0  0  0  0  0  0  0  0  0
   -8.2747    3.5840    3.3798 C   0  0  0  0  0  0  0  0  0  0  0  0
   -8.2091    4.5190    4.4275 C   0  0  0  0  0  0  0  0  0  0  0  0
   -8.8140    5.8887    4.2030 C   0  0  0  0  0  0  0  0  0  0  0  0
   -7.9703    6.6888    3.3976 O   0  0  0  0  0  0  0  0  0  0  0  0
   -6.8940    7.1862    4.1632 C   0  0  0  0  0  0  0  0  0  0  0  0
  1  2  2  0  0  0
  1 13  1  0  0  0
  1 25  1  0  0  0
  2  3  1  0  0  0
  3  4  2  0  0  0
  4  5  1  0  0  0
  4 14  1  0  0  0
  5  6  1  0  0  0
  5 13  2  0  0  0
  6  7  1  0  0  0
  7  8  2  0  0  0
  7 11  1  0  0  0
  8  9  1  0  0  0
  9 10  2  0  0  0
 10 11  1  0  0  0
 11 12  1  0  0  0
 12 13  1  0  0  0
 12 17  1  0  0  0
 17 18  2  0  0  0
 17 22  1  0  0  0
 18 19  1  0  0  0
 19 20  2  0  0  0
 19 23  1  0  0  0
 20 21  1  0  0  0
 21 22  2  0  0  0
 26 27  2  0  0  0
 27 28  1  0  0  0
 28 29  2  0  0  0
 29 30  1  0  0  0
 30 31  1  0  0  0
 31 32  1  0  0  0
 32 33  1  0  0  0
 25 26  1  0  0  0
 25 30  2  0  0  0
  6 15  1  0  0  0
 23 24  1  0  0  0
 14 16  1  0  0  0
M  END
> <minimizedAffinity>
-6.54513

> <minimizedRMSD>
0.55658

> <CNNscore>
0.9807505012

> <CNNaffinity>
5.8753557205

> <CNNgradient>
0.0012478321

$$$$



 34 38  0  0  0  0  0  0  0  0999 V2000
   -7.6429    4.9655    6.8100 C   0  0  0  0  0  0  0  0  0  0  0  0
   -6.4872    5.6357    7.0060 N   0  0  0  0  0  0  0  0  0  0  0  0
   -6.3889    6.5011    8.0499 N   0  0  0  0  0  0  0  0  0  0  0  0
   -7.4469    6.6660    8.8726 C   0  0  0  0  0  0  0  0  0  0  0  0
   -8.6480    5.9973    8.7085 C   0  0  0  0  0  0  0  0  0  0  0  0
   -9.7173    6.1736    9.6029 N   0  0  0  0  0  0  0  0  0  0  0  0
  -10.8572    5.4656    9.4826 C   0  0  0  0  0  0  0  0  0  0  0  0
  -11.9476    5.4040   10.2148 N   0  0  0  0  0  0  0  0  0  0  0  0
  -12.7565    4.4619    9.6129 N   0  0  0  0  0  0  0  0  0  0  0  0
  -12.1792    3.9537    8.5295 N   0  0  0  0  0  0  0  0  0  0  0  0
  -11.0072    4.5986    8.4336 N   0  0  0  0  0  0  0  0  0  0  0  0
  -10.0448    4.3533    7.3605 C   0  0  0  0  0  0  0  0  0  0  0  0
   -8.7549    5.1169    7.6240 C   0  0  0  0  0  0  0  0  0  0  0  0
   -7.2802    7.5408    9.9134 O   0  0  0  0  0  0  0  0  0  0  0  0
   -9.6318    6.8286   10.3330 H   0  0  0  0  0  0  0  0  0  0  0  0
   -6.4657    7.9914   10.0209 H   0  0  0  0  0  0  0  0  0  0  0  0
   -7.5952    4.0615    5.6835 C   0  0  0  0  0  0  0  0  0  0  0  0
   -6.8803    2.8489    5.7202 C   0  0  0  0  0  0  0  0  0  0  0  0
   -6.8684    1.9413    4.6500 C   0  0  0  0  0  0  0  0  0  0  0  0
   -6.0088    0.7110    4.7298 C   0  0  0  0  0  0  0  0  0  0  0  0
   -7.5985    2.2288    3.4800 C   0  0  0  0  0  0  0  0  0  0  0  0
   -8.3650    3.4075    3.4203 C   0  0  0  0  0  0  0  0  0  0  0  0
   -8.3853    4.3030    4.4944 C   0  0  0  0  0  0  0  0  0  0  0  0
   -9.2727    5.8132    4.3097 Cl  0  0  0  0  0  0  0  0  0  0  0  0
   -7.5307    1.3330    2.4001 O   0  0  0  0  0  0  0  0  0  0  0  0
   -8.2081    1.5102    1.1599 C   0  0  0  0  0  0  0  0  0  0  0  0
  -10.6881    4.7547    6.0693 C   0  0  0  0  0  0  0  0  0  0  0  0
  -11.0124    6.0915    5.8377 C   0  0  0  0  0  0  0  0  0  0  0  0
  -11.6112    6.4657    4.6344 C   0  0  0  0  0  0  0  0  0  0  0  0
  -11.8879    5.5030    3.6644 C   0  0  0  0  0  0  0  0  0  0  0  0
  -11.5646    4.1652    3.8959 C   0  0  0  0  0  0  0  0  0  0  0  0
  -10.9638    3.7921    5.0994 C   0  0  0  0  0  0  0  0  0  0  0  0
  -11.9275    7.7695    4.4082 O   0  0  0  0  0  0  0  0  0  0  0  0
  -11.7416    8.4166    5.0599 H   0  0  0  0  0  0  0  0  0  0  0  0
  1  2  2  0  0  0
  1 13  1  0  0  0
  1 17  1  0  0  0
  2  3  1  0  0  0
  3  4  2  0  0  0
  4  5  1  0  0  0
  4 14  1  0  0  0
  5  6  1  0  0  0
  5 13  2  0  0  0
  6  7  1  0  0  0
  7  8  2  0  0  0
  7 11  1  0  0  0
  8  9  1  0  0  0
  9 10  2  0  0  0
 10 11  1  0  0  0
 11 12  1  0  0  0
 12 13  1  0  0  0
 12 27  1  0  0  0
 27 28  2  0  0  0
 27 32  1  0  0  0
 28 29  1  0  0  0
 29 30  2  0  0  0
 29 33  1  0  0  0
 30 31  1  0  0  0
 31 32  2  0  0  0
 18 19  2  0  0  0
 19 20  1  0  0  0
 19 21  1  0  0  0
 21 25  1  0  0  0
 25 26  1  0  0  0
 21 22  2  0  0  0
 22 23  1  0  0  0
 23 24  1  0  0  0
 17 18  1  0  0  0
 17 23  2  0  0  0
  6 15  1  0  0  0
 33 34  1  0  0  0
 14 16  1  0  0  0
M  END
> <minimizedAffinity>
-7.14182

> <minimizedRMSD>
0.40022

> <CNNscore>
0.9259449840

> <CNNaffinity>
7.2153468132

> <CNNgradient>
0.0226606168

$$$$



 44 50  0  0  0  0  0  0  0  0999 V2000
   -7.6400    5.0158    6.8497 C   0  0  0  0  0  0  0  0  0  0  0  0
   -6.4900    5.6929    7.0552 N   0  0  0  0  0  0  0  0  0  0  0  0
   -6.4020    6.5509    8.1061 N   0  0  0  0  0  0  0  0  0  0  0  0
   -7.4642    6.7018    8.9260 C   0  0  0  0  0  0  0  0  0  0  0  0
   -8.6597    6.0256    8.7521 C   0  0  0  0  0  0  0  0  0  0  0  0
   -9.7337    6.1872    9.6438 N   0  0  0  0  0  0  0  0  0  0  0  0
  -10.8679    5.4718    9.5137 C   0  0  0  0  0  0  0  0  0  0  0  0
  -11.9606    5.3967   10.2413 N   0  0  0  0  0  0  0  0  0  0  0  0
  -12.7603    4.4533    9.6290 N   0  0  0  0  0  0  0  0  0  0  0  0
  -12.1753    3.9578    8.5439 N   0  0  0  0  0  0  0  0  0  0  0  0
  -11.0076    4.6119    8.4575 N   0  0  0  0  0  0  0  0  0  0  0  0
  -10.0394    4.3819    7.3862 C   0  0  0  0  0  0  0  0  0  0  0  0
   -8.7561    5.1528    7.6605 C   0  0  0  0  0  0  0  0  0  0  0  0
   -7.3079    7.5697    9.9741 O   0  0  0  0  0  0  0  0  0  0  0  0
   -9.6558    6.8371   10.3792 H   0  0  0  0  0  0  0  0  0  0  0  0
   -6.4971    8.0253   10.0882 H   0  0  0  0  0  0  0  0  0  0  0  0
  -10.6808    4.7886    6.0957 C   0  0  0  0  0  0  0  0  0  0  0  0
  -11.0046    6.1263    5.8690 C   0  0  0  0  0  0  0  0  0  0  0  0
  -11.6016    6.5054    4.6663 C   0  0  0  0  0  0  0  0  0  0  0  0
  -11.8769    5.5466    3.6921 C   0  0  0  0  0  0  0  0  0  0  0  0
  -11.5541    4.2079    3.9186 C   0  0  0  0  0  0  0  0  0  0  0  0
  -10.9551    3.8299    5.1216 C   0  0  0  0  0  0  0  0  0  0  0  0
  -11.9174    7.8101    4.4449 O   0  0  0  0  0  0  0  0  0  0  0  0
  -11.7324    8.4545    5.0994 H   0  0  0  0  0  0  0  0  0  0  0  0
   -7.5814    4.1210    5.7164 C   0  0  0  0  0  0  0  0  0  0  0  0
   -7.0386    2.8248    5.7422 C   0  0  0  0  0  0  0  0  0  0  0  0
   -7.2150    2.0779    4.2474 S   0  0  0  0  0  0  0  0  0  0  0  0
   -8.0336    3.3860    3.5681 C   0  0  0  0  0  0  0  0  0  0  0  0
   -8.4385    3.4569    2.3333 N   0  0  0  0  0  0  0  0  0  0  0  0
   -8.1881    4.3975    4.4610 N   0  0  0  0  0  0  0  0  0  0  0  0
   -8.2760    2.4000    1.3770 C   0  0  0  0  0  0  0  0  0  0  0  0
   -7.2303    2.4661    0.4322 C   0  0  0  0  0  0  0  0  0  0  0  0
   -6.2884    3.6383    0.4167 C   0  0  0  0  0  0  0  0  0  0  0  0
   -7.0721    1.4275   -0.4984 C   0  0  0  0  0  0  0  0  0  0  0  0
   -7.9408    0.3357   -0.4918 C   0  0  0  0  0  0  0  0  0  0  0  0
   -8.9838    0.2735    0.4328 C   0  0  0  0  0  0  0  0  0  0  0  0
   -9.1735    1.3089    1.3610 C   0  0  0  0  0  0  0  0  0  0  0  0
  -10.3041    1.2221    2.3503 C   0  0  0  0  0  0  0  0  0  0  0  0
   -8.7490    5.7127    4.1108 C   0  0  0  0  0  0  0  0  0  0  0  0
   -7.6259    6.7064    3.7819 C   0  0  0  0  0  0  0  0  0  0  0  0
   -8.1708    8.0900    3.4647 C   0  0  0  0  0  0  0  0  0  0  0  0
   -7.1813    8.6084    2.4700 C   0  0  0  0  0  0  0  0  0  0  0  0
   -6.6574    7.3434    1.8204 C   0  0  0  0  0  0  0  0  0  0  0  0
   -6.8767    6.2469    2.6785 O   0  0  0  0  0  0  0  0  0  0  0  0
  1  2  2  0  0  0
  1 13  1  0  0  0
  1 25  1  0  0  0
  2  3  1  0  0  0
  3  4  2  0  0  0
  4  5  1  0  0  0
  4 14  1  0  0  0
  5  6  1  0  0  0
  5 13  2  0  0  0
  6  7  1  0  0  0
  7  8  2  0  0  0
  7 11  1  0  0  0
  8  9  1  0  0  0
  9 10  2  0  0  0
 10 11  1  0  0  0
 11 12  1  0  0  0
 12 13  1  0  0  0
 12 17  1  0  0  0
 17 18  2  0  0  0
 17 22  1  0  0  0
 18 19  1  0  0  0
 19 20  2  0  0  0
 19 23  1  0  0  0
 20 21  1  0  0  0
 21 22  2  0  0  0
 26 27  1  0  0  0
 27 28  1  0  0  0
 28 29  2  0  0  0
 29 31  1  0  0  0
 31 32  2  0  0  0
 32 33  1  0  0  0
 32 34  1  0  0  0
 34 35  2  0  0  0
 35 36  1  0  0  0
 36 37  2  0  0  0
 37 38  1  0  0  0
 28 30  1  0  0  0
 30 39  1  0  0  0
 39 40  1  0  0  0
 40 41  1  0  0  0
 41 42  1  0  0  0
 42 43  1  0  0  0
 43 44  1  0  0  0
 44 40  1  0  0  0
 37 31  1  0  0  0
 25 26  2  0  0  0
 25 30  1  0  0  0
  6 15  1  0  0  0
 23 24  1  0  0  0
 14 16  1  0  0  0
M  END
> <minimizedAffinity>
-4.98380

> <minimizedRMSD>
0.87445

> <CNNscore>
0.9386855960

> <CNNaffinity>
7.1981277466

> <CNNgradient>
0.0156377256

$$$$



 53 60  0  0  0  0  0  0  0  0999 V2000
   -7.5529    4.0757    5.7453 C   0  0  0  0  0  0  0  0  0  0  0  0
   -7.2763    2.7449    5.9325 N   0  0  0  0  0  0  0  0  0  0  0  0
   -7.2961    1.7932    4.9678 C   0  0  0  0  0  0  0  0  0  0  0  0
   -6.9322    0.4799    5.2869 C   0  0  0  0  0  0  0  0  0  0  0  0
   -6.9558   -0.5136    4.3063 C   0  0  0  0  0  0  0  0  0  0  0  0
   -7.3494   -0.2013    3.0039 C   0  0  0  0  0  0  0  0  0  0  0  0
   -7.7190    1.1065    2.6751 C   0  0  0  0  0  0  0  0  0  0  0  0
   -7.6915    2.1244    3.6533 C   0  0  0  0  0  0  0  0  0  0  0  0
   -8.0430    3.4645    3.3642 C   0  0  0  0  0  0  0  0  0  0  0  0
   -7.9821    4.4427    4.3871 C   0  0  0  0  0  0  0  0  0  0  0  0
   -8.3356    5.8866    4.0963 C   0  0  0  0  0  0  0  0  0  0  0  0
   -7.6074    5.0038    6.8517 C   0  0  0  0  0  0  0  0  0  0  0  0
   -6.4616    5.6971    7.0238 N   0  0  0  0  0  0  0  0  0  0  0  0
   -6.3701    6.5872    8.0474 N   0  0  0  0  0  0  0  0  0  0  0  0
   -7.4247    6.7533    8.8742 C   0  0  0  0  0  0  0  0  0  0  0  0
   -8.6157    6.0615    8.7341 C   0  0  0  0  0  0  0  0  0  0  0  0
   -9.6814    6.2404    9.6324 N   0  0  0  0  0  0  0  0  0  0  0  0
  -10.8102    5.5112    9.5366 C   0  0  0  0  0  0  0  0  0  0  0  0
  -11.8942    5.4483   10.2783 N   0  0  0  0  0  0  0  0  0  0  0  0
  -12.6918    4.4798    9.7036 N   0  0  0  0  0  0  0  0  0  0  0  0
  -12.1140    3.9569    8.6275 N   0  0  0  0  0  0  0  0  0  0  0  0
  -10.9534    4.6186    8.5084 N   0  0  0  0  0  0  0  0  0  0  0  0
   -9.9949    4.3649    7.4338 C   0  0  0  0  0  0  0  0  0  0  0  0
   -8.7159    5.1553    7.6704 C   0  0  0  0  0  0  0  0  0  0  0  0
   -7.2650    7.6538    9.8939 O   0  0  0  0  0  0  0  0  0  0  0  0
   -9.6014    6.9128   10.3470 H   0  0  0  0  0  0  0  0  0  0  0  0
   -6.4573    8.1199    9.9851 H   0  0  0  0  0  0  0  0  0  0  0  0
  -10.6540    4.7267    6.1389 C   0  0  0  0  0  0  0  0  0  0  0  0
  -11.0712    6.0381    5.9112 C   0  0  0  0  0  0  0  0  0  0  0  0
  -11.6847    6.3754    4.7043 C   0  0  0  0  0  0  0  0  0  0  0  0
  -11.8832    5.4009    3.7270 C   0  0  0  0  0  0  0  0  0  0  0  0
  -11.4669    4.0884    3.9545 C   0  0  0  0  0  0  0  0  0  0  0  0
  -10.8515    3.7524    5.1616 C   0  0  0  0  0  0  0  0  0  0  0  0
  -12.0917    7.6545    4.4819 O   0  0  0  0  0  0  0  0  0  0  0  0
  -11.9583    8.3094    5.1386 H   0  0  0  0  0  0  0  0  0  0  0  0
   -8.4676    3.8453    1.9976 C   0  0  0  0  0  0  0  0  0  0  0  0
   -9.6877    3.7349    1.6967 O   0  0  0  0  0  0  0  0  0  0  0  0
   -7.5164    4.3377    1.0283 N   0  0  0  0  0  0  0  0  0  0  0  0
   -6.1173    4.5720    1.4250 C   0  0  0  0  0  0  0  0  0  0  0  0
   -5.2327    4.9077    0.2202 C   0  0  0  0  0  0  0  0  0  0  0  0
   -5.8671    5.9394   -0.6124 N   0  0  0  0  0  0  0  0  0  0  0  0
   -7.3125    5.8729   -0.8840 C   0  0  0  0  0  0  0  0  0  0  0  0
   -7.9227    4.5666   -0.3667 C   0  0  0  0  0  0  0  0  0  0  0  0
   -5.0642    6.9666   -1.2361 C   0  0  0  0  0  0  0  0  0  0  0  0
   -5.5492    8.2804   -1.3608 C   0  0  0  0  0  0  0  0  0  0  0  0
   -4.7723    9.2677   -1.9733 C   0  0  0  0  0  0  0  0  0  0  0  0
   -3.5033    8.9585   -2.4656 C   0  0  0  0  0  0  0  0  0  0  0  0
   -2.9897    7.6569   -2.3371 C   0  0  0  0  0  0  0  0  0  0  0  0
   -3.7869    6.6627   -1.7435 C   0  0  0  0  0  0  0  0  0  0  0  0
   -1.6434    7.3039   -2.9165 C   0  0  0  0  0  0  0  0  0  0  0  0
   -1.0377    6.3065   -2.1682 F   0  0  0  0  0  0  0  0  0  0  0  0
   -1.8106    6.8550   -4.2152 F   0  0  0  0  0  0  0  0  0  0  0  0
   -0.8057    8.4085   -2.9248 F   0  0  0  0  0  0  0  0  0  0  0  0
 12 13  2  0  0  0
 12 24  1  0  0  0
 12  1  1  0  0  0
 13 14  1  0  0  0
 14 15  2  0  0  0
 15 16  1  0  0  0
 15 25  1  0  0  0
 16 17  1  0  0  0
 16 24  2  0  0  0
 17 18  1  0  0  0
 18 19  2  0  0  0
 18 22  1  0  0  0
 19 20  1  0  0  0
 20 21  2  0  0  0
 21 22  1  0  0  0
 22 23  1  0  0  0
 23 24  1  0  0  0
 23 28  1  0  0  0
 28 29  2  0  0  0
 28 33  1  0  0  0
 29 30  1  0  0  0
 30 31  2  0  0  0
 30 34  1  0  0  0
 31 32  1  0  0  0
 32 33  2  0  0  0
  2  3  2  0  0  0
  3  4  1  0  0  0
  4  5  2  0  0  0
  5  6  1  0  0  0
  6  7  2  0  0  0
  7  8  1  0  0  0
  8  9  2  0  0  0
  9 36  1  0  0  0
 36 37  2  0  0  0
 36 38  1  0  0  0
 38 39  1  0  0  0
 39 40  1  0  0  0
 40 41  1  0  0  0
 41 44  1  0  0  0
 44 45  2  0  0  0
 45 46  1  0  0  0
 46 47  2  0  0  0
 47 48  1  0  0  0
 48 50  1  0  0  0
 50 51  1  0  0  0
 50 52  1  0  0  0
 50 53  1  0  0  0
 48 49  2  0  0  0
 41 42  1  0  0  0
 42 43  1  0  0  0
  9 10  1  0  0  0
 10 11  1  0  0  0
  8  3  1  0  0  0
 43 38  1  0  0  0
 49 44  1  0  0  0
  1  2  1  0  0  0
  1 10  2  0  0  0
 17 26  1  0  0  0
 34 35  1  0  0  0
 25 27  1  0  0  0
M  END
> <minimizedAffinity>
-6.68743

> <minimizedRMSD>
2.16221

> <CNNscore>
0.9439961910

> <CNNaffinity>
7.3009223938

> <CNNgradient>
0.0100698629

$$$$



 49 54  0  0  0  0  0  0  0  0999 V2000
   -7.7403    4.0608    5.7225 C   0  0  0  0  0  0  0  0  0  0  0  0
   -7.0106    2.8621    5.6700 C   0  0  0  0  0  0  0  0  0  0  0  0
   -7.4135    1.9876    4.3016 S   0  0  0  0  0  0  0  0  0  0  0  0
   -8.5749    3.0953    3.7755 C   0  0  0  0  0  0  0  0  0  0  0  0
   -9.2396    2.9966    2.6509 N   0  0  0  0  0  0  0  0  0  0  0  0
   -8.6633    4.1548    4.6385 N   0  0  0  0  0  0  0  0  0  0  0  0
   -9.8727    3.7159    2.4251 H   0  0  0  0  0  0  0  0  0  0  0  0
   -7.6760    5.0080    6.8121 C   0  0  0  0  0  0  0  0  0  0  0  0
   -6.4825    5.6322    6.9070 N   0  0  0  0  0  0  0  0  0  0  0  0
   -6.2797    6.5312    7.9065 N   0  0  0  0  0  0  0  0  0  0  0  0
   -7.2738    6.7748    8.7872 C   0  0  0  0  0  0  0  0  0  0  0  0
   -8.5104    6.1553    8.7269 C   0  0  0  0  0  0  0  0  0  0  0  0
   -9.5109    6.4135    9.6793 N   0  0  0  0  0  0  0  0  0  0  0  0
  -10.6852    5.7536    9.6604 C   0  0  0  0  0  0  0  0  0  0  0  0
  -11.7274    5.7691   10.4622 N   0  0  0  0  0  0  0  0  0  0  0  0
  -12.6132    4.8424    9.9515 N   0  0  0  0  0  0  0  0  0  0  0  0
  -12.1298    4.2680    8.8553 N   0  0  0  0  0  0  0  0  0  0  0  0
  -10.9401    4.8552    8.6591 N   0  0  0  0  0  0  0  0  0  0  0  0
  -10.0609    4.5261    7.5381 C   0  0  0  0  0  0  0  0  0  0  0  0
   -8.7252    5.2402    7.6881 C   0  0  0  0  0  0  0  0  0  0  0  0
   -7.0026    7.6800    9.7789 O   0  0  0  0  0  0  0  0  0  0  0  0
   -9.3501    7.0910   10.3752 H   0  0  0  0  0  0  0  0  0  0  0  0
   -6.1644    8.0970    9.8161 H   0  0  0  0  0  0  0  0  0  0  0  0
  -10.7692    4.9071    6.2750 C   0  0  0  0  0  0  0  0  0  0  0  0
  -11.0287    6.2494    5.9986 C   0  0  0  0  0  0  0  0  0  0  0  0
  -11.6881    6.6044    4.8214 C   0  0  0  0  0  0  0  0  0  0  0  0
  -12.0899    5.6171    3.9225 C   0  0  0  0  0  0  0  0  0  0  0  0
  -11.8314    4.2738    4.1989 C   0  0  0  0  0  0  0  0  0  0  0  0
  -11.1701    3.9198    5.3762 C   0  0  0  0  0  0  0  0  0  0  0  0
  -11.9412    7.9137    4.5515 O   0  0  0  0  0  0  0  0  0  0  0  0
  -11.6712    8.5773    5.1554 H   0  0  0  0  0  0  0  0  0  0  0  0
   -9.1036    1.9054    1.7256 C   0  0  0  0  0  0  0  0  0  0  0  0
   -8.8691    2.1815    0.3735 C   0  0  0  0  0  0  0  0  0  0  0  0
   -8.7916    1.1433   -0.5552 C   0  0  0  0  0  0  0  0  0  0  0  0
   -8.9543   -0.1811   -0.1438 C   0  0  0  0  0  0  0  0  0  0  0  0
   -9.1948   -0.4801    1.2082 C   0  0  0  0  0  0  0  0  0  0  0  0
   -9.2990    0.5748    2.1337 C   0  0  0  0  0  0  0  0  0  0  0  0
   -9.4413   -1.9054    1.6354 C   0  0  0  0  0  0  0  0  0  0  0  0
   -8.6349   -2.7723    0.9166 F   0  0  0  0  0  0  0  0  0  0  0  0
  -10.7660   -2.2260    1.4053 F   0  0  0  0  0  0  0  0  0  0  0  0
   -9.1639   -2.0731    2.9827 F   0  0  0  0  0  0  0  0  0  0  0  0
   -9.4775    5.3687    4.4242 C   0  0  0  0  0  0  0  0  0  0  0  0
   -8.6467    6.5100    3.8150 C   0  0  0  0  0  0  0  0  0  0  0  0
   -8.1185    6.1732    2.4110 C   0  0  0  0  0  0  0  0  0  0  0  0
   -7.2882    7.3139    1.8038 C   0  0  0  0  0  0  0  0  0  0  0  0
   -8.1599    8.4768    1.3054 C   0  0  0  0  0  0  0  0  0  0  0  0
   -7.3119    9.5311    0.5884 C   0  0  0  0  0  0  0  0  0  0  0  0
   -8.1102   10.6135    0.1957 O   0  0  0  0  0  0  0  0  0  0  0  0
   -8.7998   10.3031   -0.4118 H   0  0  0  0  0  0  0  0  0  0  0  0
  8  9  2  0  0  0
  8 20  1  0  0  0
  8  1  1  0  0  0
  9 10  1  0  0  0
 10 11  2  0  0  0
 11 12  1  0  0  0
 11 21  1  0  0  0
 12 13  1  0  0  0
 12 20  2  0  0  0
 13 14  1  0  0  0
 14 15  2  0  0  0
 14 18  1  0  0  0
 15 16  1  0  0  0
 16 17  2  0  0  0
 17 18  1  0  0  0
 18 19  1  0  0  0
 19 20  1  0  0  0
 19 24  1  0  0  0
 24 25  2  0  0  0
 24 29  1  0  0  0
 25 26  1  0  0  0
 26 27  2  0  0  0
 26 30  1  0  0  0
 27 28  1  0  0  0
 28 29  2  0  0  0
  2  3  1  0  0  0
  3  4  1  0  0  0
  4  5  2  0  0  0
  5 32  1  0  0  0
 32 33  2  0  0  0
 33 34  1  0  0  0
 34 35  2  0  0  0
 35 36  1  0  0  0
 36 38  1  0  0  0
 38 39  1  0  0  0
 38 40  1  0  0  0
 38 41  1  0  0  0
 36 37  2  0  0  0
  4  6  1  0  0  0
  6 42  1  0  0  0
 42 43  1  0  0  0
 43 44  1  0  0  0
 44 45  1  0  0  0
 45 46  1  0  0  0
 46 47  1  0  0  0
 47 48  1  0  0  0
 37 32  1  0  0  0
  1  2  2  0  0  0
  1  6  1  0  0  0
 13 22  1  0  0  0
 30 31  1  0  0  0
 21 23  1  0  0  0
  5  7  1  0  0  0
 48 49  1  0  0  0
M  CHG 1   5   1
M  END
> <minimizedAffinity>
-5.54742

> <minimizedRMSD>
0.11905

> <CNNscore>
0.9406108260

> <CNNaffinity>
7.4121513367

> <CNNgradient>
0.0258455370

$$$$



 37 42  0  0  0  0  0  0  0  0999 V2000
   -7.7130    5.0214    6.8561 C   0  0  0  0  0  0  0  0  0  0  0  0
   -6.4988    5.5799    7.0483 N   0  0  0  0  0  0  0  0  0  0  0  0
   -6.3198    6.4422    8.0839 N   0  0  0  0  0  0  0  0  0  0  0  0
   -7.3583    6.7158    8.9024 C   0  0  0  0  0  0  0  0  0  0  0  0
   -8.6176    6.1634    8.7419 C   0  0  0  0  0  0  0  0  0  0  0  0
   -9.6666    6.4501    9.6319 N   0  0  0  0  0  0  0  0  0  0  0  0
  -10.8687    5.8531    9.5157 C   0  0  0  0  0  0  0  0  0  0  0  0
  -11.9612    5.9034   10.2459 N   0  0  0  0  0  0  0  0  0  0  0  0
  -12.8556    5.0371    9.6512 N   0  0  0  0  0  0  0  0  0  0  0  0
  -12.3279    4.4653    8.5742 N   0  0  0  0  0  0  0  0  0  0  0  0
  -11.0994    4.9941    8.4749 N   0  0  0  0  0  0  0  0  0  0  0  0
  -10.1633    4.6472    7.4066 C   0  0  0  0  0  0  0  0  0  0  0  0
   -8.8066    5.2865    7.6658 C   0  0  0  0  0  0  0  0  0  0  0  0
   -7.1103    7.5809    9.9351 O   0  0  0  0  0  0  0  0  0  0  0  0
   -9.5199    7.1010   10.3558 H   0  0  0  0  0  0  0  0  0  0  0  0
   -6.2566    7.9525   10.0401 H   0  0  0  0  0  0  0  0  0  0  0  0
   -7.7503    4.1058    5.7385 C   0  0  0  0  0  0  0  0  0  0  0  0
   -8.5278    4.3725    4.5431 C   0  0  0  0  0  0  0  0  0  0  0  0
   -9.3247    5.6154    4.3024 C   0  0  0  0  0  0  0  0  0  0  0  0
   -8.2819    3.1740    3.3789 S   0  0  0  0  0  0  0  0  0  0  0  0
   -7.2732    2.2539    4.3454 C   0  0  0  0  0  0  0  0  0  0  0  0
   -6.6547    1.1064    3.9836 N   0  0  0  0  0  0  0  0  0  0  0  0
   -5.8420    0.4860    4.8801 C   0  0  0  0  0  0  0  0  0  0  0  0
   -5.6766    1.0033    6.1306 N   0  0  0  0  0  0  0  0  0  0  0  0
   -6.2957    2.1534    6.5265 C   0  0  0  0  0  0  0  0  0  0  0  0
   -6.1491    2.5763    7.8840 N   0  0  0  0  0  0  0  0  0  0  0  0
   -7.1063    2.8352    5.5928 C   0  0  0  0  0  0  0  0  0  0  0  0
   -5.5720    2.0677    8.4985 H   0  0  0  0  0  0  0  0  0  0  0  0
   -6.6252    3.3762    8.2046 H   0  0  0  0  0  0  0  0  0  0  0  0
  -10.7633    5.0955    6.1100 C   0  0  0  0  0  0  0  0  0  0  0  0
  -10.9313    6.4561    5.8527 C   0  0  0  0  0  0  0  0  0  0  0  0
  -11.4898    6.8738    4.6443 C   0  0  0  0  0  0  0  0  0  0  0  0
  -11.8824    5.9311    3.6950 C   0  0  0  0  0  0  0  0  0  0  0  0
  -11.7154    4.5696    3.9521 C   0  0  0  0  0  0  0  0  0  0  0  0
  -11.1549    4.1527    5.1607 C   0  0  0  0  0  0  0  0  0  0  0  0
  -11.6536    8.2009    4.3931 O   0  0  0  0  0  0  0  0  0  0  0  0
  -11.3899    8.8346    5.0310 H   0  0  0  0  0  0  0  0  0  0  0  0
  1  2  2  0  0  0
  1 13  1  0  0  0
  1 17  1  0  0  0
  2  3  1  0  0  0
  3  4  2  0  0  0
  4  5  1  0  0  0
  4 14  1  0  0  0
  5  6  1  0  0  0
  5 13  2  0  0  0
  6  7  1  0  0  0
  7  8  2  0  0  0
  7 11  1  0  0  0
  8  9  1  0  0  0
  9 10  2  0  0  0
 10 11  1  0  0  0
 11 12  1  0  0  0
 12 13  1  0  0  0
 12 30  1  0  0  0
 30 31  2  0  0  0
 30 35  1  0  0  0
 31 32  1  0  0  0
 32 33  2  0  0  0
 32 36  1  0  0  0
 33 34  1  0  0  0
 34 35  2  0  0  0
 18 19  1  0  0  0
 18 20  1  0  0  0
 20 21  1  0  0  0
 21 22  2  0  0  0
 22 23  1  0  0  0
 23 24  2  0  0  0
 24 25  1  0  0  0
 25 26  1  0  0  0
 25 27  2  0  0  0
 27 21  1  0  0  0
 17 18  2  0  0  0
 17 27  1  0  0  0
  6 15  1  0  0  0
 36 37  1  0  0  0
 14 16  1  0  0  0
 26 28  1  0  0  0
 26 29  1  0  0  0
M  END
> <minimizedAffinity>
-4.70508

> <minimizedRMSD>
0.37135

> <CNNscore>
0.8528829813

> <CNNaffinity>
6.4434394836

> <CNNgradient>
0.1397552639

$$$$



 50 55  0  0  0  0  0  0  0  0999 V2000
   -7.7303    4.0466    5.7256 C   0  0  0  0  0  0  0  0  0  0  0  0
   -8.6511    4.1673    4.6070 C   0  0  0  0  0  0  0  0  0  0  0  0
   -8.3844    3.1165    3.7167 C   0  0  0  0  0  0  0  0  0  0  0  0
   -7.3741    2.3866    4.3148 C   0  0  0  0  0  0  0  0  0  0  0  0
   -7.0368    2.9120    5.4726 N   0  0  0  0  0  0  0  0  0  0  0  0
   -5.9158    2.2605    6.1055 C   0  0  0  0  0  0  0  0  0  0  0  0
   -5.5488    1.1354    5.1021 C   0  0  0  0  0  0  0  0  0  0  0  0
   -6.5108    1.2694    3.8903 C   0  0  0  0  0  0  0  0  0  0  0  0
   -7.6337    4.9419    6.8559 C   0  0  0  0  0  0  0  0  0  0  0  0
   -6.3921    5.4405    7.0375 N   0  0  0  0  0  0  0  0  0  0  0  0
   -6.1577    6.2773    8.0829 N   0  0  0  0  0  0  0  0  0  0  0  0
   -7.1700    6.5859    8.9215 C   0  0  0  0  0  0  0  0  0  0  0  0
   -8.4559    6.0950    8.7725 C   0  0  0  0  0  0  0  0  0  0  0  0
   -9.4770    6.4161    9.6830 N   0  0  0  0  0  0  0  0  0  0  0  0
  -10.7072    5.8773    9.5767 C   0  0  0  0  0  0  0  0  0  0  0  0
  -11.7851    5.9668   10.3245 N   0  0  0  0  0  0  0  0  0  0  0  0
  -12.7277    5.1522    9.7310 N   0  0  0  0  0  0  0  0  0  0  0  0
  -12.2434    4.5734    8.6375 N   0  0  0  0  0  0  0  0  0  0  0  0
  -10.9932    5.0463    8.5269 N   0  0  0  0  0  0  0  0  0  0  0  0
  -10.0903    4.6731    7.4391 C   0  0  0  0  0  0  0  0  0  0  0  0
   -8.7016    5.2447    7.6865 C   0  0  0  0  0  0  0  0  0  0  0  0
   -6.8666    7.4224    9.9630 O   0  0  0  0  0  0  0  0  0  0  0  0
   -9.2894    7.0482   10.4141 H   0  0  0  0  0  0  0  0  0  0  0  0
   -5.9950    7.7524   10.0602 H   0  0  0  0  0  0  0  0  0  0  0  0
  -10.6881    5.1689    6.1588 C   0  0  0  0  0  0  0  0  0  0  0  0
  -10.7979    6.5396    5.9253 C   0  0  0  0  0  0  0  0  0  0  0  0
  -11.3543    7.0016    4.7321 C   0  0  0  0  0  0  0  0  0  0  0  0
  -11.8029    6.0931    3.7743 C   0  0  0  0  0  0  0  0  0  0  0  0
  -11.6942    4.7214    4.0078 C   0  0  0  0  0  0  0  0  0  0  0  0
  -11.1357    4.2602    5.2011 C   0  0  0  0  0  0  0  0  0  0  0  0
  -11.4614    8.3387    4.5040 O   0  0  0  0  0  0  0  0  0  0  0  0
  -11.1599    8.9494    5.1475 H   0  0  0  0  0  0  0  0  0  0  0  0
   -9.5655    5.3378    4.3508 C   0  0  0  0  0  0  0  0  0  0  0  0
   -9.1959    6.0242    3.1566 O   0  0  0  0  0  0  0  0  0  0  0  0
   -7.9757    6.6919    2.9912 C   0  0  0  0  0  0  0  0  0  0  0  0
   -7.1005    6.6595    3.8975 O   0  0  0  0  0  0  0  0  0  0  0  0
   -7.7129    7.4203    1.7875 N   0  0  0  0  0  0  0  0  0  0  0  0
   -6.7985    7.7405    1.6128 H   0  0  0  0  0  0  0  0  0  0  0  0
   -8.7661    7.7038    0.8063 C   0  0  0  0  0  0  0  0  0  0  0  0
   -9.0267    6.4678   -0.0606 C   0  0  0  0  0  0  0  0  0  0  0  0
   -8.3647    8.8967   -0.0703 C   0  0  0  0  0  0  0  0  0  0  0  0
   -8.8568    3.0008    2.2964 C   0  0  0  0  0  0  0  0  0  0  0  0
   -8.8222    1.6487    1.8463 O   0  0  0  0  0  0  0  0  0  0  0  0
   -9.7512    0.6793    2.2360 C   0  0  0  0  0  0  0  0  0  0  0  0
  -10.7109    0.9823    2.9987 O   0  0  0  0  0  0  0  0  0  0  0  0
   -9.6224   -0.6706    1.7734 N   0  0  0  0  0  0  0  0  0  0  0  0
  -10.3313   -1.3187    1.9896 H   0  0  0  0  0  0  0  0  0  0  0  0
   -8.4674   -1.1167    0.9877 C   0  0  0  0  0  0  0  0  0  0  0  0
   -8.5533   -0.5771   -0.4466 C   0  0  0  0  0  0  0  0  0  0  0  0
   -8.3968   -2.6489    0.9733 C   0  0  0  0  0  0  0  0  0  0  0  0
  9 10  2  0  0  0
  9 21  1  0  0  0
  9  1  1  0  0  0
 10 11  1  0  0  0
 11 12  2  0  0  0
 12 13  1  0  0  0
 12 22  1  0  0  0
 13 14  1  0  0  0
 13 21  2  0  0  0
 14 15  1  0  0  0
 15 16  2  0  0  0
 15 19  1  0  0  0
 16 17  1  0  0  0
 17 18  2  0  0  0
 18 19  1  0  0  0
 19 20  1  0  0  0
 20 21  1  0  0  0
 20 25  1  0  0  0
 25 26  2  0  0  0
 25 30  1  0  0  0
 26 27  1  0  0  0
 27 28  2  0  0  0
 27 31  1  0  0  0
 28 29  1  0  0  0
 29 30  2  0  0  0
  2 33  1  0  0  0
 33 34  1  0  0  0
 34 35  1  0  0  0
 35 36  2  0  0  0
 35 37  1  0  0  0
 37 39  1  0  0  0
 39 40  1  0  0  0
 39 41  1  0  0  0
  2  3  1  0  0  0
  3 42  1  0  0  0
 42 43  1  0  0  0
 43 44  1  0  0  0
 44 45  2  0  0  0
 44 46  1  0  0  0
 46 48  1  0  0  0
 48 49  1  0  0  0
 48 50  1  0  0  0
  3  4  2  0  0  0
  4  5  1  0  0  0
  5  6  1  0  0  0
  6  7  1  0  0  0
  7  8  1  0  0  0
  8  4  1  0  0  0
  1  2  2  0  0  0
  1  5  1  0  0  0
 14 23  1  0  0  0
 31 32  1  0  0  0
 22 24  1  0  0  0
 37 38  1  0  0  0
 46 47  1  0  0  0
M  END
> <minimizedAffinity>
-4.63579

> <minimizedRMSD>
0.41392

> <CNNscore>
0.9171650410

> <CNNaffinity>
7.3287940025

> <CNNgradient>
0.0376253054

$$$$



 52 61  0  0  0  0  0  0  0  0999 V2000
   -7.7310    4.0530    5.7140 C   0  0  0  0  0  0  0  0  0  0  0  0
   -8.7017    4.2444    4.6434 C   0  0  0  0  0  0  0  0  0  0  0  0
   -8.9666    3.2207    3.7049 C   0  0  0  0  0  0  0  0  0  0  0  0
   -8.1119    2.1369    3.6117 N   0  0  0  0  0  0  0  0  0  0  0  0
   -7.0900    1.9784    4.5302 C   0  0  0  0  0  0  0  0  0  0  0  0
   -7.0315    2.8155    5.6678 C   0  0  0  0  0  0  0  0  0  0  0  0
   -6.1087    2.4480    6.8205 C   0  0  0  0  0  0  0  0  0  0  0  0
   -5.9455    0.9261    6.9229 C   0  0  0  0  0  0  0  0  0  0  0  0
   -5.4799    0.3856    5.6000 C   0  0  0  0  0  0  0  0  0  0  0  0
   -4.4563   -0.5721    5.5377 C   0  0  0  0  0  0  0  0  0  0  0  0
   -3.9477   -0.9739    4.3018 C   0  0  0  0  0  0  0  0  0  0  0  0
   -4.4275   -0.3925    3.1277 C   0  0  0  0  0  0  0  0  0  0  0  0
   -5.4414    0.5675    3.1824 C   0  0  0  0  0  0  0  0  0  0  0  0
   -6.0293    0.9191    4.4144 C   0  0  0  0  0  0  0  0  0  0  0  0
  -10.1598    3.4138    2.8091 C   0  0  0  0  0  0  0  0  0  0  0  0
  -10.9946    2.3491    2.4128 C   0  0  0  0  0  0  0  0  0  0  0  0
  -12.0924    2.5793    1.5793 C   0  0  0  0  0  0  0  0  0  0  0  0
  -12.4035    3.8766    1.1714 C   0  0  0  0  0  0  0  0  0  0  0  0
  -11.6453    4.9533    1.6330 C   0  0  0  0  0  0  0  0  0  0  0  0
  -10.5501    4.7302    2.4814 C   0  0  0  0  0  0  0  0  0  0  0  0
   -9.8033    5.8862    3.0850 C   0  0  0  0  0  0  0  0  0  0  0  0
   -9.4501    5.5640    4.5427 C   0  0  0  0  0  0  0  0  0  0  0  0
   -7.6410    4.9930    6.8080 C   0  0  0  0  0  0  0  0  0  0  0  0
   -6.4520    5.6300    6.8680 N   0  0  0  0  0  0  0  0  0  0  0  0
   -6.2260    6.5240    7.8670 N   0  0  0  0  0  0  0  0  0  0  0  0
   -7.1930    6.7500    8.7820 C   0  0  0  0  0  0  0  0  0  0  0  0
   -8.4240    6.1170    8.7580 C   0  0  0  0  0  0  0  0  0  0  0  0
   -9.3950    6.3570    9.7450 N   0  0  0  0  0  0  0  0  0  0  0  0
  -10.5620    5.6840    9.7600 C   0  0  0  0  0  0  0  0  0  0  0  0
  -11.5770    5.6820   10.5960 N   0  0  0  0  0  0  0  0  0  0  0  0
  -12.4690    4.7490   10.1080 N   0  0  0  0  0  0  0  0  0  0  0  0
  -12.0160    4.1880    8.9920 N   0  0  0  0  0  0  0  0  0  0  0  0
  -10.8400    4.7900    8.7610 N   0  0  0  0  0  0  0  0  0  0  0  0
   -9.9950    4.4790    7.6090 C   0  0  0  0  0  0  0  0  0  0  0  0
   -8.6630    5.2070    7.7200 C   0  0  0  0  0  0  0  0  0  0  0  0
   -6.8990    7.6510    9.7710 O   0  0  0  0  0  0  0  0  0  0  0  0
   -9.2187    7.0313   10.4403 H   0  0  0  0  0  0  0  0  0  0  0  0
   -6.0646    8.0772    9.7836 H   0  0  0  0  0  0  0  0  0  0  0  0
  -10.7490    4.8610    6.3730 C   0  0  0  0  0  0  0  0  0  0  0  0
  -11.0350    6.2020    6.1170 C   0  0  0  0  0  0  0  0  0  0  0  0
  -11.7370    6.5580    4.9650 C   0  0  0  0  0  0  0  0  0  0  0  0
  -12.1550    5.5730    4.0710 C   0  0  0  0  0  0  0  0  0  0  0  0
  -11.8700    4.2310    4.3270 C   0  0  0  0  0  0  0  0  0  0  0  0
  -11.1660    3.8760    5.4790 C   0  0  0  0  0  0  0  0  0  0  0  0
  -12.0160    7.8660    4.7150 O   0  0  0  0  0  0  0  0  0  0  0  0
  -11.7352    8.5280    5.3157 H   0  0  0  0  0  0  0  0  0  0  0  0
   -8.2790    1.1802    2.5451 C   0  0  0  0  0  0  0  0  0  0  0  0
   -8.5293   -0.1727    2.8295 C   0  0  0  0  0  0  0  0  0  0  0  0
   -8.6931   -1.0746    1.7770 C   0  0  0  0  0  0  0  0  0  0  0  0
   -8.6124   -0.6250    0.4581 C   0  0  0  0  0  0  0  0  0  0  0  0
   -8.3682    0.7275    0.2103 C   0  0  0  0  0  0  0  0  0  0  0  0
   -8.2089    1.5922    1.2473 N   0  0  0  0  0  0  0  0  0  0  0  0
 23 24  2  0  0  0
 23 35  1  0  0  0
 23  1  1  0  0  0
 24 25  1  0  0  0
 25 26  2  0  0  0
 26 27  1  0  0  0
 26 36  1  0  0  0
 27 28  1  0  0  0
 27 35  2  0  0  0
 28 29  1  0  0  0
 29 30  2  0  0  0
 29 33  1  0  0  0
 30 31  1  0  0  0
 31 32  2  0  0  0
 32 33  1  0  0  0
 33 34  1  0  0  0
 34 35  1  0  0  0
 34 39  1  0  0  0
 39 40  2  0  0  0
 39 44  1  0  0  0
 40 41  1  0  0  0
 41 42  2  0  0  0
 41 45  1  0  0  0
 42 43  1  0  0  0
 43 44  2  0  0  0
  2  3  2  0  0  0
  3  4  1  0  0  0
  4 47  1  0  0  0
 47 48  2  0  0  0
 48 49  1  0  0  0
 49 50  2  0  0  0
 50 51  1  0  0  0
 51 52  2  0  0  0
  4  5  2  0  0  0
  5  6  1  0  0  0
  6  7  1  0  0  0
  7  8  1  0  0  0
  8  9  1  0  0  0
  9 10  2  0  0  0
 10 11  1  0  0  0
 11 12  2  0  0  0
 12 13  1  0  0  0
 13 14  2  0  0  0
  3 15  1  0  0  0
 15 16  2  0  0  0
 16 17  1  0  0  0
 17 18  2  0  0  0
 18 19  1  0  0  0
 19 20  2  0  0  0
 20 21  1  0  0  0
 21 22  1  0  0  0
 14  9  1  0  0  0
 20 15  1  0  0  0
 22  2  1  0  0  0
 52 47  1  0  0  0
 14  5  1  0  0  0
  1  2  1  0  0  0
  1  6  2  0  0  0
 28 37  1  0  0  0
 45 46  1  0  0  0
 36 38  1  0  0  0
M  CHG 1   4   1
M  END
> <minimizedAffinity>
-8.23428

> <minimizedRMSD>
0.00000

> <CNNscore>
0.8760716915

> <CNNaffinity>
5.7252979279

> <CNNgradient>
0.1201275960

$$$$



 37 41  0  0  0  0  0  0  0  0999 V2000
   -7.6570    4.9909    6.8165 C   0  0  0  0  0  0  0  0  0  0  0  0
   -6.4824    5.6567    6.8348 N   0  0  0  0  0  0  0  0  0  0  0  0
   -6.2614    6.5893    7.7989 N   0  0  0  0  0  0  0  0  0  0  0  0
   -7.2186    6.8243    8.7220 C   0  0  0  0  0  0  0  0  0  0  0  0
   -8.4346    6.1628    8.7403 C   0  0  0  0  0  0  0  0  0  0  0  0
   -9.3949    6.4141    9.7349 N   0  0  0  0  0  0  0  0  0  0  0  0
  -10.5454    5.7155    9.7924 C   0  0  0  0  0  0  0  0  0  0  0  0
  -11.5465    5.7188   10.6450 N   0  0  0  0  0  0  0  0  0  0  0  0
  -12.4240    4.7494   10.2041 N   0  0  0  0  0  0  0  0  0  0  0  0
  -11.9760    4.1611    9.1002 N   0  0  0  0  0  0  0  0  0  0  0  0
  -10.8184    4.7816    8.8291 N   0  0  0  0  0  0  0  0  0  0  0  0
   -9.9850    4.4508    7.6742 C   0  0  0  0  0  0  0  0  0  0  0  0
   -8.6689    5.2125    7.7379 C   0  0  0  0  0  0  0  0  0  0  0  0
   -6.9299    7.7652    9.6748 O   0  0  0  0  0  0  0  0  0  0  0  0
   -9.2234    7.1157   10.4039 H   0  0  0  0  0  0  0  0  0  0  0  0
   -6.1057    8.2106    9.6588 H   0  0  0  0  0  0  0  0  0  0  0  0
   -7.7425    4.0121    5.7567 C   0  0  0  0  0  0  0  0  0  0  0  0
   -8.7030    4.1686    4.6588 C   0  0  0  0  0  0  0  0  0  0  0  0
   -9.5006    5.4520    4.5560 C   0  0  0  0  0  0  0  0  0  0  0  0
   -8.8851    3.1312    3.7150 C   0  0  0  0  0  0  0  0  0  0  0  0
   -9.8591    3.2453    2.5777 C   0  0  0  0  0  0  0  0  0  0  0  0
   -8.1489    1.9942    3.8112 N   0  0  0  0  0  0  0  0  0  0  0  0
   -7.2466    1.7784    4.8007 C   0  0  0  0  0  0  0  0  0  0  0  0
   -6.5199    0.5440    4.8111 N   0  0  0  0  0  0  0  0  0  0  0  0
   -7.0564    2.7567    5.7937 C   0  0  0  0  0  0  0  0  0  0  0  0
   -6.6729   -0.1232    4.1035 H   0  0  0  0  0  0  0  0  0  0  0  0
   -5.8676    0.3628    5.5259 H   0  0  0  0  0  0  0  0  0  0  0  0
   -6.1329    2.5185    6.8831 C   0  0  0  0  0  0  0  0  0  0  0  0
   -5.3953    2.3300    7.7547 N   0  0  0  0  0  0  0  0  0  0  0  0
  -10.7676    4.7728    6.4389 C   0  0  0  0  0  0  0  0  0  0  0  0
  -11.0948    6.0967    6.1459 C   0  0  0  0  0  0  0  0  0  0  0  0
  -11.8235    6.3968    4.9945 C   0  0  0  0  0  0  0  0  0  0  0  0
  -12.2269    5.3730    4.1382 C   0  0  0  0  0  0  0  0  0  0  0  0
  -11.9006    4.0481    4.4312 C   0  0  0  0  0  0  0  0  0  0  0  0
  -11.1700    3.7490    5.5825 C   0  0  0  0  0  0  0  0  0  0  0  0
  -12.1427    7.6881    4.7085 O   0  0  0  0  0  0  0  0  0  0  0  0
  -11.8717    8.3762    5.2838 H   0  0  0  0  0  0  0  0  0  0  0  0
  1  2  2  0  0  0
  1 13  1  0  0  0
  1 17  1  0  0  0
  2  3  1  0  0  0
  3  4  2  0  0  0
  4  5  1  0  0  0
  4 14  1  0  0  0
  5  6  1  0  0  0
  5 13  2  0  0  0
  6  7  1  0  0  0
  7  8  2  0  0  0
  7 11  1  0  0  0
  8  9  1  0  0  0
  9 10  2  0  0  0
 10 11  1  0  0  0
 11 12  1  0  0  0
 12 13  1  0  0  0
 12 30  1  0  0  0
 30 31  2  0  0  0
 30 35  1  0  0  0
 31 32  1  0  0  0
 32 33  2  0  0  0
 32 36  1  0  0  0
 33 34  1  0  0  0
 34 35  2  0  0  0
 18 19  1  0  0  0
 18 20  2  0  0  0
 20 21  1  0  0  0
 20 22  1  0  0  0
 22 23  2  0  0  0
 23 24  1  0  0  0
 23 25  1  0  0  0
 25 28  1  0  0  0
 28 29  3  0  0  0
 17 18  1  0  0  0
 17 25  2  0  0  0
  6 15  1  0  0  0
 36 37  1  0  0  0
 14 16  1  0  0  0
 24 26  1  0  0  0
 24 27  1  0  0  0
M  END
> <minimizedAffinity>
-5.63594

> <minimizedRMSD>
0.13077

> <CNNscore>
0.8795881271

> <CNNaffinity>
6.0736985207

> <CNNgradient>
0.0767546594

$$$$



 35 39  0  0  0  0  0  0  0  0999 V2000
   -7.6542    4.9907    6.8288 C   0  0  0  0  0  0  0  0  0  0  0  0
   -6.4655    5.6291    6.8795 N   0  0  0  0  0  0  0  0  0  0  0  0
   -6.2461    6.5501    7.8551 N   0  0  0  0  0  0  0  0  0  0  0  0
   -7.2192    6.8011    8.7570 C   0  0  0  0  0  0  0  0  0  0  0  0
   -8.4502    6.1678    8.7419 C   0  0  0  0  0  0  0  0  0  0  0  0
   -9.4278    6.4348    9.7153 N   0  0  0  0  0  0  0  0  0  0  0  0
  -10.5951    5.7625    9.7408 C   0  0  0  0  0  0  0  0  0  0  0  0
  -11.6157    5.7835   10.5696 N   0  0  0  0  0  0  0  0  0  0  0  0
  -12.5046    4.8375   10.1013 N   0  0  0  0  0  0  0  0  0  0  0  0
  -12.0442    4.2461    9.0042 N   0  0  0  0  0  0  0  0  0  0  0  0
  -10.8665    4.8415    8.7648 N   0  0  0  0  0  0  0  0  0  0  0  0
  -10.0137    4.4990    7.6276 C   0  0  0  0  0  0  0  0  0  0  0  0
   -8.6824    5.2297    7.7277 C   0  0  0  0  0  0  0  0  0  0  0  0
   -6.9318    7.7289    9.7229 O   0  0  0  0  0  0  0  0  0  0  0  0
   -9.2562    7.1279   10.3931 H   0  0  0  0  0  0  0  0  0  0  0  0
   -6.0974    8.1552    9.7294 H   0  0  0  0  0  0  0  0  0  0  0  0
  -10.7592    4.8470    6.3765 C   0  0  0  0  0  0  0  0  0  0  0  0
  -11.0464    6.1802    6.0837 C   0  0  0  0  0  0  0  0  0  0  0  0
  -11.7404    6.5046    4.9176 C   0  0  0  0  0  0  0  0  0  0  0  0
  -12.1493    5.4958    4.0463 C   0  0  0  0  0  0  0  0  0  0  0  0
  -11.8632    4.1615    4.3391 C   0  0  0  0  0  0  0  0  0  0  0  0
  -11.1671    3.8382    5.5051 C   0  0  0  0  0  0  0  0  0  0  0  0
  -12.0205    7.8050    4.6318 O   0  0  0  0  0  0  0  0  0  0  0  0
  -11.7458    8.4830    5.2172 H   0  0  0  0  0  0  0  0  0  0  0  0
   -7.7370    4.0211    5.7604 C   0  0  0  0  0  0  0  0  0  0  0  0
   -6.9255    2.8648    5.6976 C   0  0  0  0  0  0  0  0  0  0  0  0
   -7.0325    1.9082    4.6726 C   0  0  0  0  0  0  0  0  0  0  0  0
   -8.0386    2.0569    3.7026 C   0  0  0  0  0  0  0  0  0  0  0  0
   -8.8863    3.1666    3.7278 C   0  0  0  0  0  0  0  0  0  0  0  0
   -8.7581    4.1286    4.7322 C   0  0  0  0  0  0  0  0  0  0  0  0
   -9.5728    5.2144    4.7194 F   0  0  0  0  0  0  0  0  0  0  0  0
   -6.1442    0.6895    4.6725 C   0  0  0  0  0  0  0  0  0  0  0  0
   -5.9630    0.2145    3.3850 F   0  0  0  0  0  0  0  0  0  0  0  0
   -4.9008    0.9928    5.1999 F   0  0  0  0  0  0  0  0  0  0  0  0
   -6.7297   -0.3002    5.4395 F   0  0  0  0  0  0  0  0  0  0  0  0
  1  2  2  0  0  0
  1 13  1  0  0  0
  1 25  1  0  0  0
  2  3  1  0  0  0
  3  4  2  0  0  0
  4  5  1  0  0  0
  4 14  1  0  0  0
  5  6  1  0  0  0
  5 13  2  0  0  0
  6  7  1  0  0  0
  7  8  2  0  0  0
  7 11  1  0  0  0
  8  9  1  0  0  0
  9 10  2  0  0  0
 10 11  1  0  0  0
 11 12  1  0  0  0
 12 13  1  0  0  0
 12 17  1  0  0  0
 17 18  2  0  0  0
 17 22  1  0  0  0
 18 19  1  0  0  0
 19 20  2  0  0  0
 19 23  1  0  0  0
 20 21  1  0  0  0
 21 22  2  0  0  0
 26 27  2  0  0  0
 27 32  1  0  0  0
 32 33  1  0  0  0
 32 34  1  0  0  0
 32 35  1  0  0  0
 27 28  1  0  0  0
 28 29  2  0  0  0
 29 30  1  0  0  0
 30 31  1  0  0  0
 25 26  1  0  0  0
 25 30  2  0  0  0
  6 15  1  0  0  0
 23 24  1  0  0  0
 14 16  1  0  0  0
M  END
> <minimizedAffinity>
-7.67988

> <minimizedRMSD>
0.09914

> <CNNscore>
0.8960758448

> <CNNaffinity>
7.7590012550

> <CNNgradient>
0.0802254826

$$$$



 47 53  0  0  0  0  0  0  0  0999 V2000
   -7.8264    4.8326    7.0940 C   0  0  0  0  0  0  0  0  0  0  0  0
   -6.6228    5.4316    6.9696 N   0  0  0  0  0  0  0  0  0  0  0  0
   -6.3232    6.4939    7.7635 N   0  0  0  0  0  0  0  0  0  0  0  0
   -7.2332    6.9221    8.6645 C   0  0  0  0  0  0  0  0  0  0  0  0
   -8.4767    6.3353    8.8255 C   0  0  0  0  0  0  0  0  0  0  0  0
   -9.3865    6.7913    9.7945 N   0  0  0  0  0  0  0  0  0  0  0  0
  -10.5648    6.1707    9.9983 C   0  0  0  0  0  0  0  0  0  0  0  0
  -11.5319    6.3617   10.8686 N   0  0  0  0  0  0  0  0  0  0  0  0
  -12.4689    5.3805   10.6162 N   0  0  0  0  0  0  0  0  0  0  0  0
  -12.0901    4.6011    9.6091 N   0  0  0  0  0  0  0  0  0  0  0  0
  -10.9163    5.1101    9.2070 N   0  0  0  0  0  0  0  0  0  0  0  0
  -10.1429    4.5566    8.0964 C   0  0  0  0  0  0  0  0  0  0  0  0
   -8.7918    5.2503    7.9972 C   0  0  0  0  0  0  0  0  0  0  0  0
   -6.8662    7.9872    9.4438 O   0  0  0  0  0  0  0  0  0  0  0  0
   -9.1580    7.5811   10.3360 H   0  0  0  0  0  0  0  0  0  0  0  0
   -6.0236    8.3815    9.3316 H   0  0  0  0  0  0  0  0  0  0  0  0
   -7.9965    3.7027    6.2092 C   0  0  0  0  0  0  0  0  0  0  0  0
   -7.5180    2.4694    6.5508 N   0  0  0  0  0  0  0  0  0  0  0  0
   -7.6938    1.3354    5.8310 C   0  0  0  0  0  0  0  0  0  0  0  0
   -7.1096    0.1425    6.2733 C   0  0  0  0  0  0  0  0  0  0  0  0
   -7.2734   -1.0333    5.5399 C   0  0  0  0  0  0  0  0  0  0  0  0
   -8.0147   -1.0218    4.3576 C   0  0  0  0  0  0  0  0  0  0  0  0
   -8.6020    0.1637    3.9061 C   0  0  0  0  0  0  0  0  0  0  0  0
   -8.4592    1.3599    4.6439 C   0  0  0  0  0  0  0  0  0  0  0  0
   -9.0310    2.5861    4.2268 C   0  0  0  0  0  0  0  0  0  0  0  0
   -8.8237    3.7575    5.0007 C   0  0  0  0  0  0  0  0  0  0  0  0
   -9.3816    5.0837    4.5226 C   0  0  0  0  0  0  0  0  0  0  0  0
   -9.8478    2.6519    2.9940 C   0  0  0  0  0  0  0  0  0  0  0  0
   -9.4005    3.2654    1.9884 O   0  0  0  0  0  0  0  0  0  0  0  0
  -11.1390    2.0196    2.9548 N   0  0  0  0  0  0  0  0  0  0  0  0
  -11.4303    1.5197    3.7514 H   0  0  0  0  0  0  0  0  0  0  0  0
  -12.0524    2.0703    1.8044 C   0  0  0  0  0  0  0  0  0  0  0  0
  -11.3584    1.5021    0.5387 C   0  0  0  0  0  0  0  0  0  0  0  0
  -12.2906    0.6771   -0.3828 C   0  0  0  0  0  0  0  0  0  0  0  0
  -12.8866    1.4833   -1.5513 C   0  0  0  0  0  0  0  0  0  0  0  0
  -14.2940    2.0571   -1.2923 C   0  0  0  0  0  0  0  0  0  0  0  0
  -14.4952    2.7906    0.0450 C   0  0  0  0  0  0  0  0  0  0  0  0
  -13.3897    3.8179    0.3659 C   0  0  0  0  0  0  0  0  0  0  0  0
  -12.6038    3.5125    1.6530 C   0  0  0  0  0  0  0  0  0  0  0  0
  -10.9558    4.7167    6.8492 C   0  0  0  0  0  0  0  0  0  0  0  0
  -11.2319    5.9917    6.3555 C   0  0  0  0  0  0  0  0  0  0  0  0
  -11.9888    6.1409    5.1929 C   0  0  0  0  0  0  0  0  0  0  0  0
  -12.4714    5.0155    4.5261 C   0  0  0  0  0  0  0  0  0  0  0  0
  -12.1963    3.7395    5.0200 C   0  0  0  0  0  0  0  0  0  0  0  0
  -11.4374    3.5913    6.1823 C   0  0  0  0  0  0  0  0  0  0  0  0
  -12.2582    7.3845    4.7111 O   0  0  0  0  0  0  0  0  0  0  0  0
  -11.9339    8.1409    5.1591 H   0  0  0  0  0  0  0  0  0  0  0  0
  1  2  2  0  0  0
  1 13  1  0  0  0
  1 17  1  0  0  0
  2  3  1  0  0  0
  3  4  2  0  0  0
  4  5  1  0  0  0
  4 14  1  0  0  0
  5  6  1  0  0  0
  5 13  2  0  0  0
  6  7  1  0  0  0
  7  8  2  0  0  0
  7 11  1  0  0  0
  8  9  1  0  0  0
  9 10  2  0  0  0
 10 11  1  0  0  0
 11 12  1  0  0  0
 12 13  1  0  0  0
 12 40  1  0  0  0
 40 41  2  0  0  0
 40 45  1  0  0  0
 41 42  1  0  0  0
 42 43  2  0  0  0
 42 46  1  0  0  0
 43 44  1  0  0  0
 44 45  2  0  0  0
 18 19  2  0  0  0
 19 20  1  0  0  0
 20 21  2  0  0  0
 21 22  1  0  0  0
 22 23  2  0  0  0
 23 24  1  0  0  0
 24 25  2  0  0  0
 25 28  1  0  0  0
 28 29  2  0  0  0
 28 30  1  0  0  0
 30 32  1  0  0  0
 32 33  1  0  0  0
 33 34  1  0  0  0
 34 35  1  0  0  0
 35 36  1  0  0  0
 36 37  1  0  0  0
 37 38  1  0  0  0
 38 39  1  0  0  0
 25 26  1  0  0  0
 26 27  1  0  0  0
 24 19  1  0  0  0
 39 32  1  0  0  0
 17 18  1  0  0  0
 17 26  2  0  0  0
  6 15  1  0  0  0
 46 47  1  0  0  0
 14 16  1  0  0  0
 30 31  1  0  0  0
M  END
> <minimizedAffinity>
-5.70899

> <minimizedRMSD>
0.87992

> <CNNscore>
0.8896895647

> <CNNaffinity>
7.1959829330

> <CNNgradient>
0.0763263255

$$$$



 43 49  0  0  0  0  0  0  0  0999 V2000
   -7.7245    4.9800    6.8810 C   0  0  0  0  0  0  0  0  0  0  0  0
   -6.5522    5.6454    6.8026 N   0  0  0  0  0  0  0  0  0  0  0  0
   -6.3050    6.6619    7.6709 N   0  0  0  0  0  0  0  0  0  0  0  0
   -7.2343    6.9792    8.5978 C   0  0  0  0  0  0  0  0  0  0  0  0
   -8.4469    6.3213    8.7134 C   0  0  0  0  0  0  0  0  0  0  0  0
   -9.3773    6.6614    9.7101 N   0  0  0  0  0  0  0  0  0  0  0  0
  -10.5231    5.9701    9.8662 C   0  0  0  0  0  0  0  0  0  0  0  0
  -11.4976    6.0503   10.7454 N   0  0  0  0  0  0  0  0  0  0  0  0
  -12.3850    5.0444   10.4214 N   0  0  0  0  0  0  0  0  0  0  0  0
  -11.9689    4.3584    9.3623 N   0  0  0  0  0  0  0  0  0  0  0  0
  -10.8222    4.9525    9.0005 N   0  0  0  0  0  0  0  0  0  0  0  0
  -10.0234    4.5186    7.8553 C   0  0  0  0  0  0  0  0  0  0  0  0
   -8.7085    5.2838    7.8091 C   0  0  0  0  0  0  0  0  0  0  0  0
   -6.9199    8.0029    9.4519 O   0  0  0  0  0  0  0  0  0  0  0  0
   -9.1878    7.4210   10.3071 H   0  0  0  0  0  0  0  0  0  0  0  0
   -6.0981    8.4455    9.3702 H   0  0  0  0  0  0  0  0  0  0  0  0
   -7.8390    3.9089    5.9175 C   0  0  0  0  0  0  0  0  0  0  0  0
   -8.6967    3.9820    4.7469 C   0  0  0  0  0  0  0  0  0  0  0  0
   -9.4950    5.1816    4.3470 C   0  0  0  0  0  0  0  0  0  0  0  0
   -8.6616    2.5338    3.8738 S   0  0  0  0  0  0  0  0  0  0  0  0
   -7.6253    1.7576    4.9396 C   0  0  0  0  0  0  0  0  0  0  0  0
   -7.1583    0.4895    4.8375 N   0  0  0  0  0  0  0  0  0  0  0  0
   -6.3320    0.0040    5.8153 C   0  0  0  0  0  0  0  0  0  0  0  0
   -5.9921    0.8060    6.8708 N   0  0  0  0  0  0  0  0  0  0  0  0
   -6.4540    2.0817    6.9889 C   0  0  0  0  0  0  0  0  0  0  0  0
   -6.1313    2.7696    7.9926 O   0  0  0  0  0  0  0  0  0  0  0  0
   -7.2919    2.5916    5.9897 C   0  0  0  0  0  0  0  0  0  0  0  0
   -5.3946    0.4493    7.5671 H   0  0  0  0  0  0  0  0  0  0  0  0
   -5.7908   -1.3764    5.7495 C   0  0  0  0  0  0  0  0  0  0  0  0
   -4.5582   -1.6771    6.3586 C   0  0  0  0  0  0  0  0  0  0  0  0
   -4.0393   -2.9744    6.3090 C   0  0  0  0  0  0  0  0  0  0  0  0
   -4.7470   -3.9887    5.6585 C   0  0  0  0  0  0  0  0  0  0  0  0
   -4.0952   -5.6161    5.5994 Cl  0  0  0  0  0  0  0  0  0  0  0  0
   -5.9781   -3.7055    5.0608 C   0  0  0  0  0  0  0  0  0  0  0  0
   -6.5004   -2.4092    5.1069 C   0  0  0  0  0  0  0  0  0  0  0  0
  -10.8444    4.7266    6.6205 C   0  0  0  0  0  0  0  0  0  0  0  0
  -11.2055    6.0167    6.2322 C   0  0  0  0  0  0  0  0  0  0  0  0
  -11.9700    6.2106    5.0813 C   0  0  0  0  0  0  0  0  0  0  0  0
  -12.3754    5.1144    4.3208 C   0  0  0  0  0  0  0  0  0  0  0  0
  -12.0153    3.8232    4.7093 C   0  0  0  0  0  0  0  0  0  0  0  0
  -11.2488    3.6305    5.8600 C   0  0  0  0  0  0  0  0  0  0  0  0
  -12.3222    7.4689    4.7022 O   0  0  0  0  0  0  0  0  0  0  0  0
  -12.0499    8.2056    5.2131 H   0  0  0  0  0  0  0  0  0  0  0  0
  1  2  2  0  0  0
  1 13  1  0  0  0
  1 17  1  0  0  0
  2  3  1  0  0  0
  3  4  2  0  0  0
  4  5  1  0  0  0
  4 14  1  0  0  0
  5  6  1  0  0  0
  5 13  2  0  0  0
  6  7  1  0  0  0
  7  8  2  0  0  0
  7 11  1  0  0  0
  8  9  1  0  0  0
  9 10  2  0  0  0
 10 11  1  0  0  0
 11 12  1  0  0  0
 12 13  1  0  0  0
 12 36  1  0  0  0
 36 37  2  0  0  0
 36 41  1  0  0  0
 37 38  1  0  0  0
 38 39  2  0  0  0
 38 42  1  0  0  0
 39 40  1  0  0  0
 40 41  2  0  0  0
 18 19  1  0  0  0
 18 20  1  0  0  0
 20 21  1  0  0  0
 21 22  1  0  0  0
 22 23  2  0  0  0
 23 29  1  0  0  0
 29 30  2  0  0  0
 30 31  1  0  0  0
 31 32  2  0  0  0
 32 33  1  0  0  0
 32 34  1  0  0  0
 34 35  2  0  0  0
 23 24  1  0  0  0
 24 25  1  0  0  0
 25 26  2  0  0  0
 25 27  1  0  0  0
 27 21  2  0  0  0
 35 29  1  0  0  0
 17 18  2  0  0  0
 17 27  1  0  0  0
  6 15  1  0  0  0
 42 43  1  0  0  0
 14 16  1  0  0  0
 24 28  1  0  0  0
M  END
> <minimizedAffinity>
-4.34712

> <minimizedRMSD>
0.85814

> <CNNscore>
0.7716822624

> <CNNaffinity>
7.8009819984

> <CNNgradient>
0.3845940232

$$$$



 47 54  0  0  0  0  0  0  0  0999 V2000
   -7.7011    4.9679    6.9219 C   0  0  0  0  0  0  0  0  0  0  0  0
   -6.5292    5.6285    6.8061 N   0  0  0  0  0  0  0  0  0  0  0  0
   -6.2779    6.6854    7.6235 N   0  0  0  0  0  0  0  0  0  0  0  0
   -7.2027    7.0470    8.5385 C   0  0  0  0  0  0  0  0  0  0  0  0
   -8.4148    6.3958    8.6914 C   0  0  0  0  0  0  0  0  0  0  0  0
   -9.3403    6.7835    9.6751 N   0  0  0  0  0  0  0  0  0  0  0  0
  -10.4854    6.1008    9.8696 C   0  0  0  0  0  0  0  0  0  0  0  0
  -11.4557    6.2233   10.7485 N   0  0  0  0  0  0  0  0  0  0  0  0
  -12.3446    5.2032   10.4775 N   0  0  0  0  0  0  0  0  0  0  0  0
  -11.9337    4.4671    9.4505 N   0  0  0  0  0  0  0  0  0  0  0  0
  -10.7887    5.0429    9.0551 N   0  0  0  0  0  0  0  0  0  0  0  0
   -9.9954    4.5544    7.9282 C   0  0  0  0  0  0  0  0  0  0  0  0
   -8.6807    5.3161    7.8391 C   0  0  0  0  0  0  0  0  0  0  0  0
   -6.8842    8.1104    9.3410 O   0  0  0  0  0  0  0  0  0  0  0  0
   -9.1479    7.5707   10.2340 H   0  0  0  0  0  0  0  0  0  0  0  0
   -6.0627    8.5484    9.2343 H   0  0  0  0  0  0  0  0  0  0  0  0
   -7.8203    3.8519    6.0115 C   0  0  0  0  0  0  0  0  0  0  0  0
   -6.9538    2.7516    6.0371 C   0  0  0  0  0  0  0  0  0  0  0  0
   -7.1250    1.6344    5.2229 C   0  0  0  0  0  0  0  0  0  0  0  0
   -8.2040    1.5956    4.3110 C   0  0  0  0  0  0  0  0  0  0  0  0
   -9.1028    2.6472    4.2656 N   0  0  0  0  0  0  0  0  0  0  0  0
   -8.9377    3.7388    5.0904 C   0  0  0  0  0  0  0  0  0  0  0  0
   -9.7435    4.7107    5.0328 O   0  0  0  0  0  0  0  0  0  0  0  0
   -8.4210    0.3411    3.4794 C   0  0  0  0  0  0  0  0  0  0  0  0
   -7.2158   -0.6118    3.4742 C   0  0  0  0  0  0  0  0  0  0  0  0
   -6.6195   -0.7687    4.8124 N   0  0  0  0  0  0  0  0  0  0  0  0
   -6.0989    0.5262    5.2918 C   0  0  0  0  0  0  0  0  0  0  0  0
  -10.2545    2.6263    3.3318 C   0  0  0  0  0  0  0  0  0  0  0  0
   -9.8432    2.9985    1.8914 C   0  0  0  0  0  0  0  0  0  0  0  0
   -8.9298    4.2041    1.7037 C   0  0  0  0  0  0  0  0  0  0  0  0
  -10.4084    4.3196    1.3810 C   0  0  0  0  0  0  0  0  0  0  0  0
   -7.5474   -1.4040    5.7737 C   0  0  0  0  0  0  0  0  0  0  0  0
   -6.7880   -1.9744    6.9332 C   0  0  0  0  0  0  0  0  0  0  0  0
   -5.8530   -2.9370    6.8176 N   0  0  0  0  0  0  0  0  0  0  0  0
   -5.4057   -3.1484    8.0689 C   0  0  0  0  0  0  0  0  0  0  0  0
   -6.0818   -2.3053    8.9263 C   0  0  0  0  0  0  0  0  0  0  0  0
   -6.9499   -1.5705    8.2080 N   0  0  0  0  0  0  0  0  0  0  0  0
   -5.5596   -3.3892    5.9938 H   0  0  0  0  0  0  0  0  0  0  0  0
   -7.5710   -0.8839    8.5427 H   0  0  0  0  0  0  0  0  0  0  0  0
  -10.8223    4.7031    6.6888 C   0  0  0  0  0  0  0  0  0  0  0  0
  -11.1669    5.9740    6.2287 C   0  0  0  0  0  0  0  0  0  0  0  0
  -11.9369    6.1126    5.0734 C   0  0  0  0  0  0  0  0  0  0  0  0
  -12.3643    4.9807    4.3805 C   0  0  0  0  0  0  0  0  0  0  0  0
  -12.0207    3.7088    4.8409 C   0  0  0  0  0  0  0  0  0  0  0  0
  -11.2487    3.5712    5.9958 C   0  0  0  0  0  0  0  0  0  0  0  0
  -12.2730    7.3522    4.6243 O   0  0  0  0  0  0  0  0  0  0  0  0
  -11.9859    8.1130    5.0898 H   0  0  0  0  0  0  0  0  0  0  0  0
  1  2  2  0  0  0
  1 13  1  0  0  0
  1 17  1  0  0  0
  2  3  1  0  0  0
  3  4  2  0  0  0
  4  5  1  0  0  0
  4 14  1  0  0  0
  5  6  1  0  0  0
  5 13  2  0  0  0
  6  7  1  0  0  0
  7  8  2  0  0  0
  7 11  1  0  0  0
  8  9  1  0  0  0
  9 10  2  0  0  0
 10 11  1  0  0  0
 11 12  1  0  0  0
 12 13  1  0  0  0
 12 40  1  0  0  0
 40 41  2  0  0  0
 40 45  1  0  0  0
 41 42  1  0  0  0
 42 43  2  0  0  0
 42 46  1  0  0  0
 43 44  1  0  0  0
 44 45  2  0  0  0
 18 19  1  0  0  0
 19 20  2  0  0  0
 20 21  1  0  0  0
 21 28  1  0  0  0
 28 29  1  0  0  0
 29 30  1  0  0  0
 30 31  1  0  0  0
 21 22  1  0  0  0
 22 23  2  0  0  0
 20 24  1  0  0  0
 24 25  1  0  0  0
 25 26  1  0  0  0
 26 32  1  0  0  0
 32 33  1  0  0  0
 33 34  1  0  0  0
 34 35  1  0  0  0
 35 36  2  0  0  0
 36 37  1  0  0  0
 26 27  1  0  0  0
 37 33  2  0  0  0
 27 19  1  0  0  0
 31 29  1  0  0  0
 17 18  2  0  0  0
 17 22  1  0  0  0
  6 15  1  0  0  0
 46 47  1  0  0  0
 14 16  1  0  0  0
 34 38  1  0  0  0
 37 39  1  0  0  0
M  CHG 1  37   1
M  END
> <minimizedAffinity>
-4.32405

> <minimizedRMSD>
0.81143

> <CNNscore>
0.7394292951

> <CNNaffinity>
7.2908005714

> <CNNgradient>
0.4441600442

$$$$



 49 55  0  0  0  0  0  0  0  0999 V2000
   -7.7254    4.4928    5.6679 C   0  0  0  0  0  0  0  0  0  0  0  0
   -8.4874    4.8601    4.4874 C   0  0  0  0  0  0  0  0  0  0  0  0
   -9.2595    6.1318    4.3322 C   0  0  0  0  0  0  0  0  0  0  0  0
   -8.3839    3.6636    3.2970 S   0  0  0  0  0  0  0  0  0  0  0  0
   -7.4357    2.6404    4.2242 C   0  0  0  0  0  0  0  0  0  0  0  0
   -6.9568    1.4351    3.8548 N   0  0  0  0  0  0  0  0  0  0  0  0
   -6.2116    0.7161    4.7370 C   0  0  0  0  0  0  0  0  0  0  0  0
   -5.9612    1.1880    6.0093 N   0  0  0  0  0  0  0  0  0  0  0  0
   -6.4352    2.4312    6.3782 C   0  0  0  0  0  0  0  0  0  0  0  0
   -6.2025    2.8901    7.5303 O   0  0  0  0  0  0  0  0  0  0  0  0
   -7.1869    3.1837    5.4641 C   0  0  0  0  0  0  0  0  0  0  0  0
   -7.6890    5.2986    6.8670 C   0  0  0  0  0  0  0  0  0  0  0  0
   -6.5123    5.9360    7.0463 N   0  0  0  0  0  0  0  0  0  0  0  0
   -6.3359    6.7087    8.1509 N   0  0  0  0  0  0  0  0  0  0  0  0
   -7.3388    6.8160    9.0486 C   0  0  0  0  0  0  0  0  0  0  0  0
   -8.5589    6.1779    8.9040 C   0  0  0  0  0  0  0  0  0  0  0  0
   -9.5687    6.2905    9.8746 N   0  0  0  0  0  0  0  0  0  0  0  0
  -10.7257    5.6088    9.7664 C   0  0  0  0  0  0  0  0  0  0  0  0
  -11.7704    5.4984   10.5572 N   0  0  0  0  0  0  0  0  0  0  0  0
  -12.6304    4.6203    9.9299 N   0  0  0  0  0  0  0  0  0  0  0  0
  -12.1289    4.1989    8.7739 N   0  0  0  0  0  0  0  0  0  0  0  0
  -10.9540    4.8356    8.6598 N   0  0  0  0  0  0  0  0  0  0  0  0
  -10.0631    4.6705    7.5123 C   0  0  0  0  0  0  0  0  0  0  0  0
   -8.7466    5.3937    7.7583 C   0  0  0  0  0  0  0  0  0  0  0  0
   -7.0942    7.5974   10.1467 O   0  0  0  0  0  0  0  0  0  0  0  0
   -9.4277    6.8802   10.6503 H   0  0  0  0  0  0  0  0  0  0  0  0
   -6.2671    8.0276   10.2408 H   0  0  0  0  0  0  0  0  0  0  0  0
  -10.7768    5.1875    6.3017 C   0  0  0  0  0  0  0  0  0  0  0  0
  -11.4710    6.3957    6.3643 C   0  0  0  0  0  0  0  0  0  0  0  0
  -12.1355    6.8777    5.2361 C   0  0  0  0  0  0  0  0  0  0  0  0
  -12.1078    6.1503    4.0469 C   0  0  0  0  0  0  0  0  0  0  0  0
  -11.4142    4.9409    3.9839 C   0  0  0  0  0  0  0  0  0  0  0  0
  -10.7482    4.4604    5.1127 C   0  0  0  0  0  0  0  0  0  0  0  0
  -12.8126    8.0563    5.2969 O   0  0  0  0  0  0  0  0  0  0  0  0
  -12.8313    8.5452    6.0960 H   0  0  0  0  0  0  0  0  0  0  0  0
   -5.1251    0.4140    6.9628 C   0  0  0  0  0  0  0  0  0  0  0  0
   -5.5967   -1.0359    7.1679 C   0  0  0  0  0  0  0  0  0  0  0  0
   -3.6749    0.4647    6.5527 C   0  0  0  0  0  0  0  0  0  0  0  0
   -2.8829    1.2000    7.2023 O   0  0  0  0  0  0  0  0  0  0  0  0
   -3.2081   -0.2713    5.4090 N   0  0  0  0  0  0  0  0  0  0  0  0
   -3.8797   -0.6937    4.8261 H   0  0  0  0  0  0  0  0  0  0  0  0
   -1.8214   -0.4285    5.0642 C   0  0  0  0  0  0  0  0  0  0  0  0
   -0.8302   -0.5767    6.0516 C   0  0  0  0  0  0  0  0  0  0  0  0
    0.5080   -0.7529    5.6871 C   0  0  0  0  0  0  0  0  0  0  0  0
    0.8704   -0.7987    4.3376 C   0  0  0  0  0  0  0  0  0  0  0  0
    2.2076   -0.9723    3.9896 O   0  0  0  0  0  0  0  0  0  0  0  0
   -0.1145   -0.6747    3.3499 C   0  0  0  0  0  0  0  0  0  0  0  0
   -1.4530   -0.4975    3.7119 C   0  0  0  0  0  0  0  0  0  0  0  0
    2.8589   -1.0543    4.6582 H   0  0  0  0  0  0  0  0  0  0  0  0
 12 13  2  0  0  0
 12 24  1  0  0  0
 12  1  1  0  0  0
 13 14  1  0  0  0
 14 15  2  0  0  0
 15 16  1  0  0  0
 15 25  1  0  0  0
 16 17  1  0  0  0
 16 24  2  0  0  0
 17 18  1  0  0  0
 18 19  2  0  0  0
 18 22  1  0  0  0
 19 20  1  0  0  0
 20 21  2  0  0  0
 21 22  1  0  0  0
 22 23  1  0  0  0
 23 24  1  0  0  0
 23 28  1  0  0  0
 28 29  2  0  0  0
 28 33  1  0  0  0
 29 30  1  0  0  0
 30 31  2  0  0  0
 30 34  1  0  0  0
 31 32  1  0  0  0
 32 33  2  0  0  0
  2  3  1  0  0  0
  2  4  1  0  0  0
  4  5  1  0  0  0
  5  6  1  0  0  0
  6  7  2  0  0  0
  7  8  1  0  0  0
  8 36  1  0  0  0
 36 37  1  0  0  0
 36 38  1  0  0  0
 38 39  2  0  0  0
 38 40  1  0  0  0
 40 42  1  0  0  0
 42 43  2  0  0  0
 43 44  1  0  0  0
 44 45  2  0  0  0
 45 46  1  0  0  0
 45 47  1  0  0  0
 47 48  2  0  0  0
  8  9  1  0  0  0
  9 10  2  0  0  0
  9 11  1  0  0  0
 11  5  2  0  0  0
 48 42  1  0  0  0
  1  2  2  0  0  0
  1 11  1  0  0  0
 17 26  1  0  0  0
 34 35  1  0  0  0
 25 27  1  0  0  0
 40 41  1  0  0  0
 46 49  1  0  0  0
M  END
> <minimizedAffinity>
-4.27670

> <minimizedRMSD>
1.00256

> <CNNscore>
0.9381844401

> <CNNaffinity>
7.5079908371

> <CNNgradient>
0.0198356584

$$$$



 49 55  0  0  0  0  0  0  0  0999 V2000
   -7.7289    4.0608    5.7181 C   0  0  0  0  0  0  0  0  0  0  0  0
   -8.7017    4.1825    4.6448 C   0  0  0  0  0  0  0  0  0  0  0  0
   -9.6043    5.3596    4.4437 C   0  0  0  0  0  0  0  0  0  0  0  0
   -8.5657    2.8963    3.5561 S   0  0  0  0  0  0  0  0  0  0  0  0
   -7.3592    2.1188    4.4189 C   0  0  0  0  0  0  0  0  0  0  0  0
   -6.7647    0.9520    4.0973 N   0  0  0  0  0  0  0  0  0  0  0  0
   -5.7965    0.4529    4.9124 C   0  0  0  0  0  0  0  0  0  0  0  0
   -5.4184    1.1171    6.0609 N   0  0  0  0  0  0  0  0  0  0  0  0
   -6.0585    2.2907    6.4110 C   0  0  0  0  0  0  0  0  0  0  0  0
   -5.7905    2.8744    7.4948 O   0  0  0  0  0  0  0  0  0  0  0  0
   -7.0327    2.8243    5.5545 C   0  0  0  0  0  0  0  0  0  0  0  0
   -7.6119    5.0188    6.7938 C   0  0  0  0  0  0  0  0  0  0  0  0
   -6.4053    5.6231    6.8414 N   0  0  0  0  0  0  0  0  0  0  0  0
   -6.1537    6.5295    7.8230 N   0  0  0  0  0  0  0  0  0  0  0  0
   -7.1135    6.8003    8.7334 C   0  0  0  0  0  0  0  0  0  0  0  0
   -8.3618    6.2019    8.7217 C   0  0  0  0  0  0  0  0  0  0  0  0
   -9.3251    6.4882    9.7038 N   0  0  0  0  0  0  0  0  0  0  0  0
  -10.5106    5.8487    9.7318 C   0  0  0  0  0  0  0  0  0  0  0  0
  -11.5248    5.8915   10.5677 N   0  0  0  0  0  0  0  0  0  0  0  0
  -12.4430    4.9748   10.0978 N   0  0  0  0  0  0  0  0  0  0  0  0
  -12.0066    4.3798    8.9929 N   0  0  0  0  0  0  0  0  0  0  0  0
  -10.8142    4.9438    8.7503 N   0  0  0  0  0  0  0  0  0  0  0  0
   -9.9790    4.5869    7.6045 C   0  0  0  0  0  0  0  0  0  0  0  0
   -8.6269    5.2791    7.7014 C   0  0  0  0  0  0  0  0  0  0  0  0
   -6.7936    7.7116    9.7048 O   0  0  0  0  0  0  0  0  0  0  0  0
   -9.1296    7.1705   10.3860 H   0  0  0  0  0  0  0  0  0  0  0  0
   -5.9476    8.1143    9.7092 H   0  0  0  0  0  0  0  0  0  0  0  0
  -10.7226    4.9661    6.3614 C   0  0  0  0  0  0  0  0  0  0  0  0
  -10.9698    6.3095    6.0789 C   0  0  0  0  0  0  0  0  0  0  0  0
  -11.6621    6.6628    4.9203 C   0  0  0  0  0  0  0  0  0  0  0  0
  -12.1092    5.6728    4.0460 C   0  0  0  0  0  0  0  0  0  0  0  0
  -11.8630    4.3285    4.3285 C   0  0  0  0  0  0  0  0  0  0  0  0
  -11.1686    3.9761    5.4871 C   0  0  0  0  0  0  0  0  0  0  0  0
  -11.9034    7.9731    4.6445 O   0  0  0  0  0  0  0  0  0  0  0  0
  -11.6030    8.6385    5.2319 H   0  0  0  0  0  0  0  0  0  0  0  0
   -4.3601    0.5021    6.9021 C   0  0  0  0  0  0  0  0  0  0  0  0
   -3.2483    1.5020    7.2703 C   0  0  0  0  0  0  0  0  0  0  0  0
   -4.9682   -0.1572    8.1202 C   0  0  0  0  0  0  0  0  0  0  0  0
   -5.5365    0.5513    8.9932 O   0  0  0  0  0  0  0  0  0  0  0  0
   -5.0074   -1.5864    8.2574 N   0  0  0  0  0  0  0  0  0  0  0  0
   -5.7998   -1.9877    8.6818 H   0  0  0  0  0  0  0  0  0  0  0  0
   -3.9635   -2.4658    7.8143 C   0  0  0  0  0  0  0  0  0  0  0  0
   -2.6111   -2.1276    7.9892 C   0  0  0  0  0  0  0  0  0  0  0  0
   -1.6044   -3.0028    7.5715 C   0  0  0  0  0  0  0  0  0  0  0  0
   -1.9396   -4.2313    6.9892 C   0  0  0  0  0  0  0  0  0  0  0  0
   -0.9461   -5.1172    6.5820 O   0  0  0  0  0  0  0  0  0  0  0  0
   -3.2852   -4.5777    6.8256 C   0  0  0  0  0  0  0  0  0  0  0  0
   -4.2928   -3.7030    7.2447 C   0  0  0  0  0  0  0  0  0  0  0  0
   -0.0434   -4.8903    6.6893 H   0  0  0  0  0  0  0  0  0  0  0  0
 12 13  2  0  0  0
 12 24  1  0  0  0
 12  1  1  0  0  0
 13 14  1  0  0  0
 14 15  2  0  0  0
 15 16  1  0  0  0
 15 25  1  0  0  0
 16 17  1  0  0  0
 16 24  2  0  0  0
 17 18  1  0  0  0
 18 19  2  0  0  0
 18 22  1  0  0  0
 19 20  1  0  0  0
 20 21  2  0  0  0
 21 22  1  0  0  0
 22 23  1  0  0  0
 23 24  1  0  0  0
 23 28  1  0  0  0
 28 29  2  0  0  0
 28 33  1  0  0  0
 29 30  1  0  0  0
 30 31  2  0  0  0
 30 34  1  0  0  0
 31 32  1  0  0  0
 32 33  2  0  0  0
  2  3  1  0  0  0
  2  4  1  0  0  0
  4  5  1  0  0  0
  5  6  1  0  0  0
  6  7  2  0  0  0
  7  8  1  0  0  0
  8 36  1  0  0  0
 36 37  1  0  0  0
 36 38  1  0  0  0
 38 39  2  0  0  0
 38 40  1  0  0  0
 40 42  1  0  0  0
 42 43  2  0  0  0
 43 44  1  0  0  0
 44 45  2  0  0  0
 45 46  1  0  0  0
 45 47  1  0  0  0
 47 48  2  0  0  0
  8  9  1  0  0  0
  9 10  2  0  0  0
  9 11  1  0  0  0
 11  5  2  0  0  0
 48 42  1  0  0  0
  1  2  2  0  0  0
  1 11  1  0  0  0
 17 26  1  0  0  0
 34 35  1  0  0  0
 25 27  1  0  0  0
 40 41  1  0  0  0
 46 49  1  0  0  0
M  END
> <minimizedAffinity>
-4.91861

> <minimizedRMSD>
0.12332

> <CNNscore>
0.9309010506

> <CNNaffinity>
8.2501707077

> <CNNgradient>
0.0269354302

$$$$



 41 48  0  0  0  0  0  0  0  0999 V2000
   -7.6407    5.0055    6.8336 C   0  0  0  0  0  0  0  0  0  0  0  0
   -6.4162    5.5693    6.9098 N   0  0  0  0  0  0  0  0  0  0  0  0
   -6.1515    6.4520    7.9094 N   0  0  0  0  0  0  0  0  0  0  0  0
   -7.1167    6.7399    8.8087 C   0  0  0  0  0  0  0  0  0  0  0  0
   -8.3833    6.1828    8.7678 C   0  0  0  0  0  0  0  0  0  0  0  0
   -9.3528    6.4852    9.7391 N   0  0  0  0  0  0  0  0  0  0  0  0
  -10.5586    5.8844    9.7383 C   0  0  0  0  0  0  0  0  0  0  0  0
  -11.5844    5.9474   10.5586 N   0  0  0  0  0  0  0  0  0  0  0  0
  -12.5239    5.0683   10.0599 N   0  0  0  0  0  0  0  0  0  0  0  0
  -12.0890    4.4763    8.9527 N   0  0  0  0  0  0  0  0  0  0  0  0
  -10.8753    5.0049    8.7379 N   0  0  0  0  0  0  0  0  0  0  0  0
  -10.0334    4.6385    7.5999 C   0  0  0  0  0  0  0  0  0  0  0  0
   -8.6615    5.2848    7.7291 C   0  0  0  0  0  0  0  0  0  0  0  0
   -6.7834    7.6254    9.7993 O   0  0  0  0  0  0  0  0  0  0  0  0
   -9.1464    7.1504   10.4349 H   0  0  0  0  0  0  0  0  0  0  0  0
   -5.9250    8.0002    9.8234 H   0  0  0  0  0  0  0  0  0  0  0  0
   -7.7711    4.0683    5.7412 C   0  0  0  0  0  0  0  0  0  0  0  0
   -7.2170    2.7658    5.7556 C   0  0  0  0  0  0  0  0  0  0  0  0
   -7.4048    1.8383    4.7635 C   0  0  0  0  0  0  0  0  0  0  0  0
   -8.1927    2.0913    3.6913 N   0  0  0  0  0  0  0  0  0  0  0  0
   -8.8178    3.2980    3.5733 C   0  0  0  0  0  0  0  0  0  0  0  0
   -9.6262    3.5488    2.4493 C   0  0  0  0  0  0  0  0  0  0  0  0
  -10.2406    4.7916    2.3517 C   0  0  0  0  0  0  0  0  0  0  0  0
  -10.0815    5.7526    3.2954 C   0  0  0  0  0  0  0  0  0  0  0  0
   -9.2959    5.5604    4.4271 C   0  0  0  0  0  0  0  0  0  0  0  0
   -8.6500    4.3091    4.5887 C   0  0  0  0  0  0  0  0  0  0  0  0
  -10.8000    6.8759    2.9333 O   0  0  0  0  0  0  0  0  0  0  0  0
  -11.4517    6.6028    1.6853 C   0  0  0  0  0  0  0  0  0  0  0  0
  -11.0677    5.2623    1.3499 O   0  0  0  0  0  0  0  0  0  0  0  0
   -6.6724    0.5656    5.0560 C   0  0  0  0  0  0  0  0  0  0  0  0
   -6.0511    0.8398    6.3158 O   0  0  0  0  0  0  0  0  0  0  0  0
   -6.3676    2.1257    6.7366 C   0  0  0  0  0  0  0  0  0  0  0  0
   -5.9764    2.6265    7.8230 O   0  0  0  0  0  0  0  0  0  0  0  0
  -10.7440    5.0606    6.3514 C   0  0  0  0  0  0  0  0  0  0  0  0
  -10.9607    6.4147    6.0960 C   0  0  0  0  0  0  0  0  0  0  0  0
  -11.6223    6.8080    4.9323 C   0  0  0  0  0  0  0  0  0  0  0  0
  -12.0692    5.8474    4.0259 C   0  0  0  0  0  0  0  0  0  0  0  0
  -11.8536    4.4924    4.2812 C   0  0  0  0  0  0  0  0  0  0  0  0
  -11.1900    4.0999    5.4449 C   0  0  0  0  0  0  0  0  0  0  0  0
  -11.8337    8.1287    4.6829 O   0  0  0  0  0  0  0  0  0  0  0  0
  -11.5334    8.7744    5.2920 H   0  0  0  0  0  0  0  0  0  0  0  0
  1  2  2  0  0  0
  1 13  1  0  0  0
  1 17  1  0  0  0
  2  3  1  0  0  0
  3  4  2  0  0  0
  4  5  1  0  0  0
  4 14  1  0  0  0
  5  6  1  0  0  0
  5 13  2  0  0  0
  6  7  1  0  0  0
  7  8  2  0  0  0
  7 11  1  0  0  0
  8  9  1  0  0  0
  9 10  2  0  0  0
 10 11  1  0  0  0
 11 12  1  0  0  0
 12 13  1  0  0  0
 12 34  1  0  0  0
 34 35  2  0  0  0
 34 39  1  0  0  0
 35 36  1  0  0  0
 36 37  2  0  0  0
 36 40  1  0  0  0
 37 38  1  0  0  0
 38 39  2  0  0  0
 18 19  2  0  0  0
 19 20  1  0  0  0
 20 21  2  0  0  0
 21 22  1  0  0  0
 22 23  2  0  0  0
 23 24  1  0  0  0
 24 25  2  0  0  0
 25 26  1  0  0  0
 24 27  1  0  0  0
 27 28  1  0  0  0
 28 29  1  0  0  0
 19 30  1  0  0  0
 30 31  1  0  0  0
 31 32  1  0  0  0
 32 33  2  0  0  0
 32 18  1  0  0  0
 26 21  1  0  0  0
 29 23  1  0  0  0
 17 18  1  0  0  0
 17 26  2  0  0  0
  6 15  1  0  0  0
 40 41  1  0  0  0
 14 16  1  0  0  0
M  END
> <minimizedAffinity>
-6.13475

> <minimizedRMSD>
0.24509

> <CNNscore>
0.9059861302

> <CNNaffinity>
6.4351639748

> <CNNgradient>
0.0506281406

$$$$



 32 36  0  0  0  0  0  0  0  0999 V2000
   -7.8951    4.8311    7.3330 C   0  0  0  0  0  0  0  0  0  0  0  0
   -6.6501    5.3465    7.4193 N   0  0  0  0  0  0  0  0  0  0  0  0
   -6.3798    6.2763    8.3736 N   0  0  0  0  0  0  0  0  0  0  0  0
   -7.3605    6.6589    9.2193 C   0  0  0  0  0  0  0  0  0  0  0  0
   -8.6486    6.1541    9.1663 C   0  0  0  0  0  0  0  0  0  0  0  0
   -9.6353    6.5557   10.0827 N   0  0  0  0  0  0  0  0  0  0  0  0
  -10.8658    6.0073   10.0745 C   0  0  0  0  0  0  0  0  0  0  0  0
  -11.9144    6.1632   10.8526 N   0  0  0  0  0  0  0  0  0  0  0  0
  -12.8749    5.2958   10.3737 N   0  0  0  0  0  0  0  0  0  0  0  0
  -12.4302    4.6198    9.3198 N   0  0  0  0  0  0  0  0  0  0  0  0
  -11.1878    5.0827    9.1174 N   0  0  0  0  0  0  0  0  0  0  0  0
  -10.3258    4.6127    8.0340 C   0  0  0  0  0  0  0  0  0  0  0  0
   -8.9316    5.2072    8.1735 C   0  0  0  0  0  0  0  0  0  0  0  0
   -7.0214    7.5881   10.1669 O   0  0  0  0  0  0  0  0  0  0  0  0
   -9.4228    7.2526   10.7448 H   0  0  0  0  0  0  0  0  0  0  0  0
   -6.1485    7.9272   10.1992 H   0  0  0  0  0  0  0  0  0  0  0  0
   -8.0306    3.8356    6.2943 C   0  0  0  0  0  0  0  0  0  0  0  0
   -7.2908    2.7026    6.1614 N   0  0  0  0  0  0  0  0  0  0  0  0
   -7.7284    2.0172    5.1146 N   0  0  0  0  0  0  0  0  0  0  0  0
   -8.7632    2.7074    4.6000 C   0  0  0  0  0  0  0  0  0  0  0  0
   -9.6917    2.1740    3.1653 S   0  0  0  0  0  0  0  0  0  0  0  0
   -8.9996    3.8366    5.2928 N   0  0  0  0  0  0  0  0  0  0  0  0
  -10.0164    4.8523    5.0264 C   0  0  0  0  0  0  0  0  0  0  0  0
   -9.1893    0.9938    2.7132 H   0  0  0  0  0  0  0  0  0  0  0  0
  -10.9753    4.9876    6.7380 C   0  0  0  0  0  0  0  0  0  0  0  0
  -11.2449    6.3265    6.4547 C   0  0  0  0  0  0  0  0  0  0  0  0
  -11.8496    6.6759    5.2468 C   0  0  0  0  0  0  0  0  0  0  0  0
  -12.1868    5.6865    4.3241 C   0  0  0  0  0  0  0  0  0  0  0  0
  -11.9182    4.3466    4.6074 C   0  0  0  0  0  0  0  0  0  0  0  0
  -11.3116    3.9981    5.8154 C   0  0  0  0  0  0  0  0  0  0  0  0
  -12.1125    7.9819    4.9702 O   0  0  0  0  0  0  0  0  0  0  0  0
  -11.8860    8.6469    5.5901 H   0  0  0  0  0  0  0  0  0  0  0  0
  1  2  2  0  0  0
  1 13  1  0  0  0
  1 17  1  0  0  0
  2  3  1  0  0  0
  3  4  2  0  0  0
  4  5  1  0  0  0
  4 14  1  0  0  0
  5  6  1  0  0  0
  5 13  2  0  0  0
  6  7  1  0  0  0
  7  8  2  0  0  0
  7 11  1  0  0  0
  8  9  1  0  0  0
  9 10  2  0  0  0
 10 11  1  0  0  0
 11 12  1  0  0  0
 12 13  1  0  0  0
 12 25  1  0  0  0
 25 26  2  0  0  0
 25 30  1  0  0  0
 26 27  1  0  0  0
 27 28  2  0  0  0
 27 31  1  0  0  0
 28 29  1  0  0  0
 29 30  2  0  0  0
 18 19  1  0  0  0
 19 20  2  0  0  0
 20 21  1  0  0  0
 20 22  1  0  0  0
 22 23  1  0  0  0
 17 18  2  0  0  0
 17 22  1  0  0  0
  6 15  1  0  0  0
 31 32  1  0  0  0
 14 16  1  0  0  0
 21 24  1  0  0  0
M  END
> <minimizedAffinity>
-6.90910

> <minimizedRMSD>
0.59122

> <CNNscore>
0.9495308995

> <CNNaffinity>
6.9436163902

> <CNNgradient>
0.0207069963

$$$$



 43 49  0  0  0  0  0  0  0  0999 V2000
   -7.7503    5.1248    6.8902 C   0  0  0  0  0  0  0  0  0  0  0  0
   -6.5690    5.7563    7.0605 N   0  0  0  0  0  0  0  0  0  0  0  0
   -6.4120    6.6006    8.1145 N   0  0  0  0  0  0  0  0  0  0  0  0
   -7.4386    6.7836    8.9724 C   0  0  0  0  0  0  0  0  0  0  0  0
   -8.6642    6.1544    8.8353 C   0  0  0  0  0  0  0  0  0  0  0  0
   -9.6996    6.3479    9.7654 N   0  0  0  0  0  0  0  0  0  0  0  0
  -10.8638    5.6769    9.6695 C   0  0  0  0  0  0  0  0  0  0  0  0
  -11.9326    5.6360   10.4345 N   0  0  0  0  0  0  0  0  0  0  0  0
  -12.7883    4.7292    9.8432 N   0  0  0  0  0  0  0  0  0  0  0  0
  -12.2606    4.2221    8.7343 N   0  0  0  0  0  0  0  0  0  0  0  0
  -11.0727    4.8327    8.6121 N   0  0  0  0  0  0  0  0  0  0  0  0
  -10.1518    4.5764    7.5057 C   0  0  0  0  0  0  0  0  0  0  0  0
   -8.8315    5.2961    7.7408 C   0  0  0  0  0  0  0  0  0  0  0  0
   -7.2131    7.6352   10.0214 O   0  0  0  0  0  0  0  0  0  0  0  0
   -9.5715    6.9875   10.5028 H   0  0  0  0  0  0  0  0  0  0  0  0
   -6.3822    8.0590   10.1105 H   0  0  0  0  0  0  0  0  0  0  0  0
   -7.7651    4.2390    5.7484 C   0  0  0  0  0  0  0  0  0  0  0  0
   -8.6000    4.4604    4.5808 C   0  0  0  0  0  0  0  0  0  0  0  0
   -9.4595    5.6652    4.3655 C   0  0  0  0  0  0  0  0  0  0  0  0
   -8.4208    3.2087    3.4559 S   0  0  0  0  0  0  0  0  0  0  0  0
   -7.3538    2.3319    4.4034 C   0  0  0  0  0  0  0  0  0  0  0  0
   -6.7829    1.1467    4.0889 N   0  0  0  0  0  0  0  0  0  0  0  0
   -5.9483    0.5536    4.9888 C   0  0  0  0  0  0  0  0  0  0  0  0
   -5.6935    1.1568    6.1929 N   0  0  0  0  0  0  0  0  0  0  0  0
   -6.2660    2.3515    6.5251 C   0  0  0  0  0  0  0  0  0  0  0  0
   -6.0338    2.8661    7.6515 O   0  0  0  0  0  0  0  0  0  0  0  0
   -7.1157    2.9760    5.6014 C   0  0  0  0  0  0  0  0  0  0  0  0
   -5.0850    0.7198    6.8317 H   0  0  0  0  0  0  0  0  0  0  0  0
   -5.2782   -0.7405    4.6343 C   0  0  0  0  0  0  0  0  0  0  0  0
   -3.8512   -0.4924    4.2246 C   0  0  0  0  0  0  0  0  0  0  0  0
   -3.5682    0.1451    3.0041 C   0  0  0  0  0  0  0  0  0  0  0  0
   -2.2439    0.3872    2.6262 C   0  0  0  0  0  0  0  0  0  0  0  0
   -1.1944   -0.0044    3.4620 C   0  0  0  0  0  0  0  0  0  0  0  0
   -1.4673   -0.6396    4.6767 C   0  0  0  0  0  0  0  0  0  0  0  0
   -2.7901   -0.8838    5.0591 C   0  0  0  0  0  0  0  0  0  0  0  0
  -10.8219    5.0190    6.2418 C   0  0  0  0  0  0  0  0  0  0  0  0
  -11.0985    6.3704    6.0354 C   0  0  0  0  0  0  0  0  0  0  0  0
  -11.7223    6.7829    4.8575 C   0  0  0  0  0  0  0  0  0  0  0  0
  -12.0715    5.8437    3.8878 C   0  0  0  0  0  0  0  0  0  0  0  0
  -11.7958    4.4913    4.0941 C   0  0  0  0  0  0  0  0  0  0  0  0
  -11.1701    4.0798    5.2722 C   0  0  0  0  0  0  0  0  0  0  0  0
  -11.9921    8.1011    4.6558 O   0  0  0  0  0  0  0  0  0  0  0  0
  -11.7575    8.7323    5.3073 H   0  0  0  0  0  0  0  0  0  0  0  0
  1  2  2  0  0  0
  1 13  1  0  0  0
  1 17  1  0  0  0
  2  3  1  0  0  0
  3  4  2  0  0  0
  4  5  1  0  0  0
  4 14  1  0  0  0
  5  6  1  0  0  0
  5 13  2  0  0  0
  6  7  1  0  0  0
  7  8  2  0  0  0
  7 11  1  0  0  0
  8  9  1  0  0  0
  9 10  2  0  0  0
 10 11  1  0  0  0
 11 12  1  0  0  0
 12 13  1  0  0  0
 12 36  1  0  0  0
 36 37  2  0  0  0
 36 41  1  0  0  0
 37 38  1  0  0  0
 38 39  2  0  0  0
 38 42  1  0  0  0
 39 40  1  0  0  0
 40 41  2  0  0  0
 18 19  1  0  0  0
 18 20  1  0  0  0
 20 21  1  0  0  0
 21 22  1  0  0  0
 22 23  2  0  0  0
 23 29  1  0  0  0
 29 30  1  0  0  0
 30 31  2  0  0  0
 31 32  1  0  0  0
 32 33  2  0  0  0
 33 34  1  0  0  0
 34 35  2  0  0  0
 23 24  1  0  0  0
 24 25  1  0  0  0
 25 26  2  0  0  0
 25 27  1  0  0  0
 27 21  2  0  0  0
 35 30  1  0  0  0
 17 18  2  0  0  0
 17 27  1  0  0  0
  6 15  1  0  0  0
 42 43  1  0  0  0
 14 16  1  0  0  0
 24 28  1  0  0  0
M  END
> <minimizedAffinity>
-5.79757

> <minimizedRMSD>
0.29777

> <CNNscore>
0.9280636907

> <CNNaffinity>
7.4802923203

> <CNNgradient>
0.0304925367

$$$$



 43 49  0  0  0  0  0  0  0  0999 V2000
   -7.6664    5.0360    6.8267 C   0  0  0  0  0  0  0  0  0  0  0  0
   -6.4874    5.6808    6.9581 N   0  0  0  0  0  0  0  0  0  0  0  0
   -6.3169    6.5522    7.9876 N   0  0  0  0  0  0  0  0  0  0  0  0
   -7.3279    6.7483    8.8609 C   0  0  0  0  0  0  0  0  0  0  0  0
   -8.5506    6.1063    8.7636 C   0  0  0  0  0  0  0  0  0  0  0  0
   -9.5692    6.3146    9.7090 N   0  0  0  0  0  0  0  0  0  0  0  0
  -10.7294    5.6322    9.6527 C   0  0  0  0  0  0  0  0  0  0  0  0
  -11.7827    5.6019   10.4394 N   0  0  0  0  0  0  0  0  0  0  0  0
  -12.6421    4.6739    9.8877 N   0  0  0  0  0  0  0  0  0  0  0  0
  -12.1319    4.1436    8.7814 N   0  0  0  0  0  0  0  0  0  0  0  0
  -10.9519    4.7604    8.6207 N   0  0  0  0  0  0  0  0  0  0  0  0
  -10.0507    4.4841    7.5029 C   0  0  0  0  0  0  0  0  0  0  0  0
   -8.7321    5.2198    7.6942 C   0  0  0  0  0  0  0  0  0  0  0  0
   -7.0891    7.6274    9.8839 O   0  0  0  0  0  0  0  0  0  0  0  0
   -9.4321    6.9733   10.4277 H   0  0  0  0  0  0  0  0  0  0  0  0
   -6.2602    8.0599    9.9461 H   0  0  0  0  0  0  0  0  0  0  0  0
   -7.6961    4.1220    5.7077 C   0  0  0  0  0  0  0  0  0  0  0  0
   -8.6042    4.2732    4.5826 C   0  0  0  0  0  0  0  0  0  0  0  0
   -9.5461    5.4191    4.3947 C   0  0  0  0  0  0  0  0  0  0  0  0
   -8.4372    2.9947    3.4871 S   0  0  0  0  0  0  0  0  0  0  0  0
   -7.2749    2.1970    4.3904 C   0  0  0  0  0  0  0  0  0  0  0  0
   -6.6705    1.0283    4.0756 N   0  0  0  0  0  0  0  0  0  0  0  0
   -5.7550    0.5007    4.9366 C   0  0  0  0  0  0  0  0  0  0  0  0
   -5.4513    1.1549    6.1022 N   0  0  0  0  0  0  0  0  0  0  0  0
   -6.0617    2.3301    6.4382 C   0  0  0  0  0  0  0  0  0  0  0  0
   -5.7853    2.8882    7.5334 O   0  0  0  0  0  0  0  0  0  0  0  0
   -6.9965    2.8864    5.5539 C   0  0  0  0  0  0  0  0  0  0  0  0
   -4.7793    0.7700    6.7099 H   0  0  0  0  0  0  0  0  0  0  0  0
   -5.0586   -0.7787    4.5741 C   0  0  0  0  0  0  0  0  0  0  0  0
   -4.0124   -0.5245    3.5217 C   0  0  0  0  0  0  0  0  0  0  0  0
   -2.8540    0.2067    3.8377 C   0  0  0  0  0  0  0  0  0  0  0  0
   -1.8870    0.4539    2.8569 C   0  0  0  0  0  0  0  0  0  0  0  0
   -2.0681   -0.0279    1.5568 C   0  0  0  0  0  0  0  0  0  0  0  0
   -3.2143   -0.7606    1.2362 C   0  0  0  0  0  0  0  0  0  0  0  0
   -4.1837   -1.0100    2.2137 C   0  0  0  0  0  0  0  0  0  0  0  0
  -10.7491    4.8898    6.2421 C   0  0  0  0  0  0  0  0  0  0  0  0
  -11.0423    6.2333    6.0086 C   0  0  0  0  0  0  0  0  0  0  0  0
  -11.6925    6.6115    4.8334 C   0  0  0  0  0  0  0  0  0  0  0  0
  -12.0514    5.6460    3.8937 C   0  0  0  0  0  0  0  0  0  0  0  0
  -11.7591    4.3015    4.1270 C   0  0  0  0  0  0  0  0  0  0  0  0
  -11.1070    3.9243    5.3023 C   0  0  0  0  0  0  0  0  0  0  0  0
  -11.9786    7.9220    4.6054 O   0  0  0  0  0  0  0  0  0  0  0  0
  -11.7374    8.5709    5.2368 H   0  0  0  0  0  0  0  0  0  0  0  0
  1  2  2  0  0  0
  1 13  1  0  0  0
  1 17  1  0  0  0
  2  3  1  0  0  0
  3  4  2  0  0  0
  4  5  1  0  0  0
  4 14  1  0  0  0
  5  6  1  0  0  0
  5 13  2  0  0  0
  6  7  1  0  0  0
  7  8  2  0  0  0
  7 11  1  0  0  0
  8  9  1  0  0  0
  9 10  2  0  0  0
 10 11  1  0  0  0
 11 12  1  0  0  0
 12 13  1  0  0  0
 12 36  1  0  0  0
 36 37  2  0  0  0
 36 41  1  0  0  0
 37 38  1  0  0  0
 38 39  2  0  0  0
 38 42  1  0  0  0
 39 40  1  0  0  0
 40 41  2  0  0  0
 18 19  1  0  0  0
 18 20  1  0  0  0
 20 21  1  0  0  0
 21 22  1  0  0  0
 22 23  2  0  0  0
 23 29  1  0  0  0
 29 30  1  0  0  0
 30 31  2  0  0  0
 31 32  1  0  0  0
 32 33  2  0  0  0
 33 34  1  0  0  0
 34 35  2  0  0  0
 23 24  1  0  0  0
 24 25  1  0  0  0
 25 26  2  0  0  0
 25 27  1  0  0  0
 27 21  2  0  0  0
 35 30  1  0  0  0
 17 18  2  0  0  0
 17 27  1  0  0  0
  6 15  1  0  0  0
 42 43  1  0  0  0
 14 16  1  0  0  0
 24 28  1  0  0  0
M  END
> <minimizedAffinity>
-6.26579

> <minimizedRMSD>
0.19840

> <CNNscore>
0.9124997258

> <CNNaffinity>
7.4040861130

> <CNNgradient>
0.0453732200

$$$$



 43 49  0  0  0  0  0  0  0  0999 V2000
   -7.6883    5.1026    6.8521 C   0  0  0  0  0  0  0  0  0  0  0  0
   -6.5031    5.7327    6.9979 N   0  0  0  0  0  0  0  0  0  0  0  0
   -6.3529    6.6448    7.9949 N   0  0  0  0  0  0  0  0  0  0  0  0
   -7.3902    6.8953    8.8223 C   0  0  0  0  0  0  0  0  0  0  0  0
   -8.6202    6.2702    8.7087 C   0  0  0  0  0  0  0  0  0  0  0  0
   -9.6674    6.5361    9.6072 N   0  0  0  0  0  0  0  0  0  0  0  0
  -10.8372    5.8713    9.5386 C   0  0  0  0  0  0  0  0  0  0  0  0
  -11.9177    5.8927   10.2877 N   0  0  0  0  0  0  0  0  0  0  0  0
  -12.7740    4.9561    9.7456 N   0  0  0  0  0  0  0  0  0  0  0  0
  -12.2351    4.3702    8.6818 N   0  0  0  0  0  0  0  0  0  0  0  0
  -11.0391    4.9596    8.5374 N   0  0  0  0  0  0  0  0  0  0  0  0
  -10.1045    4.6202    7.4654 C   0  0  0  0  0  0  0  0  0  0  0  0
   -8.7803    5.3414    7.6721 C   0  0  0  0  0  0  0  0  0  0  0  0
   -7.1714    7.8137    9.8147 O   0  0  0  0  0  0  0  0  0  0  0  0
   -9.5435    7.2229   10.3017 H   0  0  0  0  0  0  0  0  0  0  0  0
   -6.3374    8.2345    9.8881 H   0  0  0  0  0  0  0  0  0  0  0  0
   -7.6954    4.1417    5.7726 C   0  0  0  0  0  0  0  0  0  0  0  0
   -8.5910    4.2436    4.6284 C   0  0  0  0  0  0  0  0  0  0  0  0
   -9.5165    5.3920    4.3699 C   0  0  0  0  0  0  0  0  0  0  0  0
   -8.4530    2.8950    3.6161 S   0  0  0  0  0  0  0  0  0  0  0  0
   -7.3173    2.1254    4.5801 C   0  0  0  0  0  0  0  0  0  0  0  0
   -6.7585    0.9144    4.3542 N   0  0  0  0  0  0  0  0  0  0  0  0
   -5.8685    0.4133    5.2583 C   0  0  0  0  0  0  0  0  0  0  0  0
   -5.5400    1.1401    6.3758 N   0  0  0  0  0  0  0  0  0  0  0  0
   -6.1114    2.3557    6.6268 C   0  0  0  0  0  0  0  0  0  0  0  0
   -5.8175    2.9797    7.6822 O   0  0  0  0  0  0  0  0  0  0  0  0
   -7.0246    2.8808    5.6999 C   0  0  0  0  0  0  0  0  0  0  0  0
   -4.8791    0.7780    7.0094 H   0  0  0  0  0  0  0  0  0  0  0  0
   -5.2557   -0.9389    5.0095 C   0  0  0  0  0  0  0  0  0  0  0  0
   -5.3307   -1.8252    6.2310 C   0  0  0  0  0  0  0  0  0  0  0  0
   -6.5569   -2.0286    6.8913 C   0  0  0  0  0  0  0  0  0  0  0  0
   -6.6198   -2.8509    8.0225 C   0  0  0  0  0  0  0  0  0  0  0  0
   -5.4691   -3.5019    8.4834 C   0  0  0  0  0  0  0  0  0  0  0  0
   -4.2508   -3.3236    7.8223 C   0  0  0  0  0  0  0  0  0  0  0  0
   -4.1788   -2.4863    6.7024 C   0  0  0  0  0  0  0  0  0  0  0  0
  -10.7507    4.9827    6.1642 C   0  0  0  0  0  0  0  0  0  0  0  0
  -11.0064    6.3200    5.8611 C   0  0  0  0  0  0  0  0  0  0  0  0
  -11.6080    6.6578    4.6484 C   0  0  0  0  0  0  0  0  0  0  0  0
  -11.9560    5.6583    3.7405 C   0  0  0  0  0  0  0  0  0  0  0  0
  -11.7013    4.3200    4.0436 C   0  0  0  0  0  0  0  0  0  0  0  0
  -11.0978    3.9832    5.2564 C   0  0  0  0  0  0  0  0  0  0  0  0
  -11.8574    7.9622    4.3524 O   0  0  0  0  0  0  0  0  0  0  0  0
  -11.6235    8.6340    4.9624 H   0  0  0  0  0  0  0  0  0  0  0  0
  1  2  2  0  0  0
  1 13  1  0  0  0
  1 17  1  0  0  0
  2  3  1  0  0  0
  3  4  2  0  0  0
  4  5  1  0  0  0
  4 14  1  0  0  0
  5  6  1  0  0  0
  5 13  2  0  0  0
  6  7  1  0  0  0
  7  8  2  0  0  0
  7 11  1  0  0  0
  8  9  1  0  0  0
  9 10  2  0  0  0
 10 11  1  0  0  0
 11 12  1  0  0  0
 12 13  1  0  0  0
 12 36  1  0  0  0
 36 37  2  0  0  0
 36 41  1  0  0  0
 37 38  1  0  0  0
 38 39  2  0  0  0
 38 42  1  0  0  0
 39 40  1  0  0  0
 40 41  2  0  0  0
 18 19  1  0  0  0
 18 20  1  0  0  0
 20 21  1  0  0  0
 21 22  1  0  0  0
 22 23  2  0  0  0
 23 29  1  0  0  0
 29 30  1  0  0  0
 30 31  2  0  0  0
 31 32  1  0  0  0
 32 33  2  0  0  0
 33 34  1  0  0  0
 34 35  2  0  0  0
 23 24  1  0  0  0
 24 25  1  0  0  0
 25 26  2  0  0  0
 25 27  1  0  0  0
 27 21  2  0  0  0
 35 30  1  0  0  0
 17 18  2  0  0  0
 17 27  1  0  0  0
  6 15  1  0  0  0
 42 43  1  0  0  0
 14 16  1  0  0  0
 24 28  1  0  0  0
M  END
> <minimizedAffinity>
-5.22593

> <minimizedRMSD>
0.31897

> <CNNscore>
0.8721494079

> <CNNaffinity>
7.2392215729

> <CNNgradient>
0.0978522971

$$$$



 36 41  0  0  0  0  0  0  0  0999 V2000
   -7.6461    4.9956    6.8088 C   0  0  0  0  0  0  0  0  0  0  0  0
   -6.4607    5.6225    6.9666 N   0  0  0  0  0  0  0  0  0  0  0  0
   -6.3097    6.5142    7.9816 N   0  0  0  0  0  0  0  0  0  0  0  0
   -7.3464    6.7482    8.8146 C   0  0  0  0  0  0  0  0  0  0  0  0
   -8.5766    6.1257    8.6893 C   0  0  0  0  0  0  0  0  0  0  0  0
   -9.6231    6.3737    9.5937 N   0  0  0  0  0  0  0  0  0  0  0  0
  -10.7931    5.7106    9.5124 C   0  0  0  0  0  0  0  0  0  0  0  0
  -11.8731    5.7170   10.2625 N   0  0  0  0  0  0  0  0  0  0  0  0
  -12.7300    4.7918    9.7022 N   0  0  0  0  0  0  0  0  0  0  0  0
  -12.1919    4.2273    8.6265 N   0  0  0  0  0  0  0  0  0  0  0  0
  -10.9959    4.8193    8.4932 N   0  0  0  0  0  0  0  0  0  0  0  0
  -10.0620    4.5014    7.4139 C   0  0  0  0  0  0  0  0  0  0  0  0
   -8.7375    5.2181    7.6343 C   0  0  0  0  0  0  0  0  0  0  0  0
   -7.1268    7.6464    9.8252 O   0  0  0  0  0  0  0  0  0  0  0  0
   -9.4987    7.0463   10.3018 H   0  0  0  0  0  0  0  0  0  0  0  0
   -6.2927    8.0655    9.9065 H   0  0  0  0  0  0  0  0  0  0  0  0
   -7.6542    4.0567    5.7102 C   0  0  0  0  0  0  0  0  0  0  0  0
   -8.6352    4.2642    4.6122 C   0  0  0  0  0  0  0  0  0  0  0  0
   -9.3653    5.4536    4.5428 O   0  0  0  0  0  0  0  0  0  0  0  0
   -8.7967    3.3393    3.5787 C   0  0  0  0  0  0  0  0  0  0  0  0
   -8.0719    2.1509    3.5661 C   0  0  0  0  0  0  0  0  0  0  0  0
   -7.1766    1.8583    4.6010 C   0  0  0  0  0  0  0  0  0  0  0  0
   -6.4566    0.6529    4.5829 C   0  0  0  0  0  0  0  0  0  0  0  0
   -5.5785    0.3419    5.6211 C   0  0  0  0  0  0  0  0  0  0  0  0
   -5.4161    1.2244    6.6879 C   0  0  0  0  0  0  0  0  0  0  0  0
   -6.1235    2.4286    6.7210 C   0  0  0  0  0  0  0  0  0  0  0  0
   -7.0056    2.7748    5.6729 C   0  0  0  0  0  0  0  0  0  0  0  0
   -9.9835    5.5842    3.8508 H   0  0  0  0  0  0  0  0  0  0  0  0
  -10.7091    4.8902    6.1207 C   0  0  0  0  0  0  0  0  0  0  0  0
  -10.9530    6.2344    5.8393 C   0  0  0  0  0  0  0  0  0  0  0  0
  -11.5553    6.5967    4.6340 C   0  0  0  0  0  0  0  0  0  0  0  0
  -11.9158    5.6148    3.7120 C   0  0  0  0  0  0  0  0  0  0  0  0
  -11.6729    4.2696    3.9934 C   0  0  0  0  0  0  0  0  0  0  0  0
  -11.0686    3.9083    5.1988 C   0  0  0  0  0  0  0  0  0  0  0  0
  -11.7932    7.9078    4.3592 O   0  0  0  0  0  0  0  0  0  0  0  0
  -11.5510    8.5678    4.9787 H   0  0  0  0  0  0  0  0  0  0  0  0
  1  2  2  0  0  0
  1 13  1  0  0  0
  1 17  1  0  0  0
  2  3  1  0  0  0
  3  4  2  0  0  0
  4  5  1  0  0  0
  4 14  1  0  0  0
  5  6  1  0  0  0
  5 13  2  0  0  0
  6  7  1  0  0  0
  7  8  2  0  0  0
  7 11  1  0  0  0
  8  9  1  0  0  0
  9 10  2  0  0  0
 10 11  1  0  0  0
 11 12  1  0  0  0
 12 13  1  0  0  0
 12 29  1  0  0  0
 29 30  2  0  0  0
 29 34  1  0  0  0
 30 31  1  0  0  0
 31 32  2  0  0  0
 31 35  1  0  0  0
 32 33  1  0  0  0
 33 34  2  0  0  0
 18 19  1  0  0  0
 18 20  2  0  0  0
 20 21  1  0  0  0
 21 22  2  0  0  0
 22 23  1  0  0  0
 23 24  2  0  0  0
 24 25  1  0  0  0
 25 26  2  0  0  0
 26 27  1  0  0  0
 27 22  1  0  0  0
 17 18  1  0  0  0
 17 27  2  0  0  0
  6 15  1  0  0  0
 35 36  1  0  0  0
 14 16  1  0  0  0
 19 28  1  0  0  0
M  END
> <minimizedAffinity>
-7.71995

> <minimizedRMSD>
0.27510

> <CNNscore>
0.9299187064

> <CNNaffinity>
7.8418331146

> <CNNgradient>
0.0274327509

$$$$



 42 47  0  0  0  0  0  0  0  0999 V2000
   -8.0360    4.7076    7.3566 C   0  0  0  0  0  0  0  0  0  0  0  0
   -6.8197    5.2922    7.4023 N   0  0  0  0  0  0  0  0  0  0  0  0
   -6.6132    6.3324    8.2529 N   0  0  0  0  0  0  0  0  0  0  0  0
   -7.6270    6.7537    9.0390 C   0  0  0  0  0  0  0  0  0  0  0  0
   -8.8874    6.1812    9.0247 C   0  0  0  0  0  0  0  0  0  0  0  0
   -9.9094    6.6287    9.8790 N   0  0  0  0  0  0  0  0  0  0  0  0
  -11.1111    6.0205    9.9147 C   0  0  0  0  0  0  0  0  0  0  0  0
  -12.1802    6.2061   10.6574 N   0  0  0  0  0  0  0  0  0  0  0  0
  -13.0878    5.2441   10.2636 N   0  0  0  0  0  0  0  0  0  0  0  0
  -12.5909    4.4815    9.2955 N   0  0  0  0  0  0  0  0  0  0  0  0
  -11.3694    4.9826    9.0600 N   0  0  0  0  0  0  0  0  0  0  0  0
  -10.4654    4.4426    8.0456 C   0  0  0  0  0  0  0  0  0  0  0  0
   -9.1051    5.1191    8.1374 C   0  0  0  0  0  0  0  0  0  0  0  0
   -7.3517    7.7962    9.8839 O   0  0  0  0  0  0  0  0  0  0  0  0
   -9.7438    7.4032   10.4638 H   0  0  0  0  0  0  0  0  0  0  0  0
   -6.4973    8.1809    9.8904 H   0  0  0  0  0  0  0  0  0  0  0  0
  -11.1087    4.6414    6.7081 C   0  0  0  0  0  0  0  0  0  0  0  0
  -11.3713    5.9308    6.2453 C   0  0  0  0  0  0  0  0  0  0  0  0
  -11.9701    6.1160    4.9988 C   0  0  0  0  0  0  0  0  0  0  0  0
  -12.3084    5.0122    4.2169 C   0  0  0  0  0  0  0  0  0  0  0  0
  -12.0468    3.7219    4.6798 C   0  0  0  0  0  0  0  0  0  0  0  0
  -11.4460    3.5376    5.9264 C   0  0  0  0  0  0  0  0  0  0  0  0
  -12.2263    7.3736    4.5470 O   0  0  0  0  0  0  0  0  0  0  0  0
  -11.9990    8.1155    5.0723 H   0  0  0  0  0  0  0  0  0  0  0  0
   -8.1030    3.5999    6.4309 C   0  0  0  0  0  0  0  0  0  0  0  0
   -8.1341    2.2453    6.8037 C   0  0  0  0  0  0  0  0  0  0  0  0
   -8.3063    1.2658    5.4521 S   0  0  0  0  0  0  0  0  0  0  0  0
   -8.4075    2.5591    4.3789 C   0  0  0  0  0  0  0  0  0  0  0  0
   -8.2964    3.7495    5.0288 N   0  0  0  0  0  0  0  0  0  0  0  0
   -8.4611    2.4192    2.9490 N   0  0  0  0  0  0  0  0  0  0  0  0
   -8.4088    3.2339    2.3988 H   0  0  0  0  0  0  0  0  0  0  0  0
   -8.5868    1.1539    2.2801 C   0  0  0  0  0  0  0  0  0  0  0  0
   -8.7063    1.1201    0.8822 C   0  0  0  0  0  0  0  0  0  0  0  0
   -8.8570   -0.0995    0.2146 C   0  0  0  0  0  0  0  0  0  0  0  0
   -8.9048   -1.2934    0.9393 C   0  0  0  0  0  0  0  0  0  0  0  0
   -9.0518   -2.4752    0.2909 F   0  0  0  0  0  0  0  0  0  0  0  0
   -8.8070   -1.2682    2.3332 C   0  0  0  0  0  0  0  0  0  0  0  0
   -8.6551   -0.0507    3.0036 C   0  0  0  0  0  0  0  0  0  0  0  0
   -8.2499    5.0570    4.3529 C   0  0  0  0  0  0  0  0  0  0  0  0
   -7.3315    6.0313    5.0973 C   0  0  0  0  0  0  0  0  0  0  0  0
   -6.0582    6.0636    4.5123 O   0  0  0  0  0  0  0  0  0  0  0  0
   -5.6606    5.1798    4.5542 H   0  0  0  0  0  0  0  0  0  0  0  0
  1  2  2  0  0  0
  1 13  1  0  0  0
  1 25  1  0  0  0
  2  3  1  0  0  0
  3  4  2  0  0  0
  4  5  1  0  0  0
  4 14  1  0  0  0
  5  6  1  0  0  0
  5 13  2  0  0  0
  6  7  1  0  0  0
  7  8  2  0  0  0
  7 11  1  0  0  0
  8  9  1  0  0  0
  9 10  2  0  0  0
 10 11  1  0  0  0
 11 12  1  0  0  0
 12 13  1  0  0  0
 12 17  1  0  0  0
 17 18  2  0  0  0
 17 22  1  0  0  0
 18 19  1  0  0  0
 19 20  2  0  0  0
 19 23  1  0  0  0
 20 21  1  0  0  0
 21 22  2  0  0  0
 26 27  1  0  0  0
 27 28  1  0  0  0
 28 30  1  0  0  0
 30 32  1  0  0  0
 32 33  2  0  0  0
 33 34  1  0  0  0
 34 35  2  0  0  0
 35 36  1  0  0  0
 35 37  1  0  0  0
 37 38  2  0  0  0
 28 29  2  0  0  0
 29 39  1  0  0  0
 39 40  1  0  0  0
 40 41  1  0  0  0
 38 32  1  0  0  0
 25 26  2  0  0  0
 25 29  1  0  0  0
  6 15  1  0  0  0
 23 24  1  0  0  0
 14 16  1  0  0  0
 30 31  1  0  0  0
 41 42  1  0  0  0
M  CHG 1  29   1
M  END
> <minimizedAffinity>
-3.93444

> <minimizedRMSD>
1.14858

> <CNNscore>
0.9629226923

> <CNNaffinity>
9.1157226562

> <CNNgradient>
0.0102799358

$$$$



 42 47  0  0  0  0  0  0  0  0999 V2000
   -8.5551    4.4052    7.1065 C   0  0  0  0  0  0  0  0  0  0  0  0
   -7.2759    4.8292    7.0238 N   0  0  0  0  0  0  0  0  0  0  0  0
   -6.8509    5.8254    7.8456 N   0  0  0  0  0  0  0  0  0  0  0  0
   -7.7156    6.3642    8.7319 C   0  0  0  0  0  0  0  0  0  0  0  0
   -9.0336    5.9573    8.8503 C   0  0  0  0  0  0  0  0  0  0  0  0
   -9.8959    6.5224    9.8051 N   0  0  0  0  0  0  0  0  0  0  0  0
  -11.1553    6.0723    9.9673 C   0  0  0  0  0  0  0  0  0  0  0  0
  -12.1092    6.3847   10.8167 N   0  0  0  0  0  0  0  0  0  0  0  0
  -13.1683    5.5507   10.5220 N   0  0  0  0  0  0  0  0  0  0  0  0
  -12.8761    4.7414    9.5095 N   0  0  0  0  0  0  0  0  0  0  0  0
  -11.6315    5.0850    9.1469 N   0  0  0  0  0  0  0  0  0  0  0  0
  -10.9140    4.4450    8.0453 C   0  0  0  0  0  0  0  0  0  0  0  0
   -9.4761    4.9413    7.9933 C   0  0  0  0  0  0  0  0  0  0  0  0
   -7.2231    7.3539    9.5408 O   0  0  0  0  0  0  0  0  0  0  0  0
   -9.5729    7.2631   10.3675 H   0  0  0  0  0  0  0  0  0  0  0  0
   -6.3304    7.6263    9.4574 H   0  0  0  0  0  0  0  0  0  0  0  0
  -11.6615    4.7386    6.7815 C   0  0  0  0  0  0  0  0  0  0  0  0
  -11.6856    6.0365    6.2709 C   0  0  0  0  0  0  0  0  0  0  0  0
  -12.3816    6.3099    5.0930 C   0  0  0  0  0  0  0  0  0  0  0  0
  -13.0553    5.2864    4.4277 C   0  0  0  0  0  0  0  0  0  0  0  0
  -13.0323    3.9878    4.9385 C   0  0  0  0  0  0  0  0  0  0  0  0
  -12.3342    3.7149    6.1161 C   0  0  0  0  0  0  0  0  0  0  0  0
  -12.4052    7.5758    4.5948 O   0  0  0  0  0  0  0  0  0  0  0  0
  -11.9526    8.2637    5.0418 H   0  0  0  0  0  0  0  0  0  0  0  0
   -8.8590    3.3251    6.1957 C   0  0  0  0  0  0  0  0  0  0  0  0
   -8.5334    1.9761    6.4167 C   0  0  0  0  0  0  0  0  0  0  0  0
   -9.0942    1.0228    5.1543 S   0  0  0  0  0  0  0  0  0  0  0  0
   -9.8210    2.3087    4.3460 C   0  0  0  0  0  0  0  0  0  0  0  0
   -9.6354    3.4785    5.0158 N   0  0  0  0  0  0  0  0  0  0  0  0
  -10.4123    2.2124    3.0397 N   0  0  0  0  0  0  0  0  0  0  0  0
  -10.5962    3.0465    2.5501 H   0  0  0  0  0  0  0  0  0  0  0  0
  -10.7502    0.9669    2.4085 C   0  0  0  0  0  0  0  0  0  0  0  0
  -11.2271   -0.1251    3.1563 C   0  0  0  0  0  0  0  0  0  0  0  0
  -11.5781   -1.3185    2.5172 C   0  0  0  0  0  0  0  0  0  0  0  0
  -11.4690   -1.4278    1.1282 C   0  0  0  0  0  0  0  0  0  0  0  0
  -11.8144   -2.5838    0.5101 F   0  0  0  0  0  0  0  0  0  0  0  0
  -11.0159   -0.3401    0.3756 C   0  0  0  0  0  0  0  0  0  0  0  0
  -10.6658    0.8550    1.0116 C   0  0  0  0  0  0  0  0  0  0  0  0
  -10.0558    4.7911    4.5020 C   0  0  0  0  0  0  0  0  0  0  0  0
   -8.9140    5.4523    3.7267 C   0  0  0  0  0  0  0  0  0  0  0  0
   -9.2747    6.7504    3.3415 O   0  0  0  0  0  0  0  0  0  0  0  0
  -10.0577    6.7124    2.7702 H   0  0  0  0  0  0  0  0  0  0  0  0
  1  2  2  0  0  0
  1 13  1  0  0  0
  1 25  1  0  0  0
  2  3  1  0  0  0
  3  4  2  0  0  0
  4  5  1  0  0  0
  4 14  1  0  0  0
  5  6  1  0  0  0
  5 13  2  0  0  0
  6  7  1  0  0  0
  7  8  2  0  0  0
  7 11  1  0  0  0
  8  9  1  0  0  0
  9 10  2  0  0  0
 10 11  1  0  0  0
 11 12  1  0  0  0
 12 13  1  0  0  0
 12 17  1  0  0  0
 17 18  2  0  0  0
 17 22  1  0  0  0
 18 19  1  0  0  0
 19 20  2  0  0  0
 19 23  1  0  0  0
 20 21  1  0  0  0
 21 22  2  0  0  0
 26 27  1  0  0  0
 27 28  1  0  0  0
 28 30  1  0  0  0
 30 32  1  0  0  0
 32 33  2  0  0  0
 33 34  1  0  0  0
 34 35  2  0  0  0
 35 36  1  0  0  0
 35 37  1  0  0  0
 37 38  2  0  0  0
 28 29  2  0  0  0
 29 39  1  0  0  0
 39 40  1  0  0  0
 40 41  1  0  0  0
 38 32  1  0  0  0
 25 26  2  0  0  0
 25 29  1  0  0  0
  6 15  1  0  0  0
 23 24  1  0  0  0
 14 16  1  0  0  0
 30 31  1  0  0  0
 41 42  1  0  0  0
M  CHG 1  29   1
M  END
> <minimizedAffinity>
-2.74087

> <minimizedRMSD>
1.26607

> <CNNscore>
0.9717288613

> <CNNaffinity>
9.3372926712

> <CNNgradient>
0.0067774476

$$$$



 41 48  0  0  0  0  0  0  0  0999 V2000
   -8.0532    4.9258    7.0476 C   0  0  0  0  0  0  0  0  0  0  0  0
   -6.8568    5.5463    7.1304 N   0  0  0  0  0  0  0  0  0  0  0  0
   -6.6392    6.4406    8.1310 N   0  0  0  0  0  0  0  0  0  0  0  0
   -7.6218    6.6833    9.0248 C   0  0  0  0  0  0  0  0  0  0  0  0
   -8.8608    6.0675    8.9771 C   0  0  0  0  0  0  0  0  0  0  0  0
   -9.8487    6.3245    9.9428 N   0  0  0  0  0  0  0  0  0  0  0  0
  -11.0251    5.6679    9.9355 C   0  0  0  0  0  0  0  0  0  0  0  0
  -12.0573    5.6831   10.7501 N   0  0  0  0  0  0  0  0  0  0  0  0
  -12.9520    4.7609   10.2466 N   0  0  0  0  0  0  0  0  0  0  0  0
  -12.4837    4.1897    9.1421 N   0  0  0  0  0  0  0  0  0  0  0  0
  -11.2948    4.7744    8.9338 N   0  0  0  0  0  0  0  0  0  0  0  0
  -10.4304    4.4476    7.8008 C   0  0  0  0  0  0  0  0  0  0  0  0
   -9.0909    5.1573    7.9373 C   0  0  0  0  0  0  0  0  0  0  0  0
   -7.3359    7.5835   10.0169 O   0  0  0  0  0  0  0  0  0  0  0  0
   -9.6776    6.9987   10.6395 H   0  0  0  0  0  0  0  0  0  0  0  0
   -6.4961    7.9981   10.0455 H   0  0  0  0  0  0  0  0  0  0  0  0
   -8.1335    3.9833    5.9549 C   0  0  0  0  0  0  0  0  0  0  0  0
   -7.1918    2.9372    5.7695 C   0  0  0  0  0  0  0  0  0  0  0  0
   -7.2897    1.9794    4.8052 C   0  0  0  0  0  0  0  0  0  0  0  0
   -8.3710    1.9292    3.9304 C   0  0  0  0  0  0  0  0  0  0  0  0
   -9.3884    2.8918    4.0544 C   0  0  0  0  0  0  0  0  0  0  0  0
  -10.4891    2.8646    3.1845 C   0  0  0  0  0  0  0  0  0  0  0  0
  -11.4961    3.8248    3.2936 C   0  0  0  0  0  0  0  0  0  0  0  0
  -11.4136    4.8222    4.2657 C   0  0  0  0  0  0  0  0  0  0  0  0
  -10.3265    4.8666    5.1420 C   0  0  0  0  0  0  0  0  0  0  0  0
   -9.3010    3.9015    5.0611 C   0  0  0  0  0  0  0  0  0  0  0  0
   -6.1179    1.0770    4.8408 C   0  0  0  0  0  0  0  0  0  0  0  0
   -5.3913    1.4243    6.0985 N   0  0  0  0  0  0  0  0  0  0  0  0
   -3.9273    1.4632    5.9121 C   0  0  0  0  0  0  0  0  0  0  0  0
   -3.3048    1.2208    7.2816 C   0  0  0  0  0  0  0  0  0  0  0  0
   -4.3842    0.5146    8.0917 C   0  0  0  0  0  0  0  0  0  0  0  0
   -5.5799    0.4020    7.1518 C   0  0  0  0  0  0  0  0  0  0  0  0
   -5.9370    2.7487    6.5401 C   0  0  0  0  0  0  0  0  0  0  0  0
  -11.1529    4.8357    6.5480 C   0  0  0  0  0  0  0  0  0  0  0  0
  -11.2595    6.1803    6.1925 C   0  0  0  0  0  0  0  0  0  0  0  0
  -11.9322    6.5419    5.0249 C   0  0  0  0  0  0  0  0  0  0  0  0
  -12.5003    5.5594    4.2149 C   0  0  0  0  0  0  0  0  0  0  0  0
  -12.3949    4.2140    4.5705 C   0  0  0  0  0  0  0  0  0  0  0  0
  -11.7201    3.8531    5.7380 C   0  0  0  0  0  0  0  0  0  0  0  0
  -12.0361    7.8534    4.6777 O   0  0  0  0  0  0  0  0  0  0  0  0
  -11.6544    8.5137    5.2220 H   0  0  0  0  0  0  0  0  0  0  0  0
  1  2  2  0  0  0
  1 13  1  0  0  0
  1 17  1  0  0  0
  2  3  1  0  0  0
  3  4  2  0  0  0
  4  5  1  0  0  0
  4 14  1  0  0  0
  5  6  1  0  0  0
  5 13  2  0  0  0
  6  7  1  0  0  0
  7  8  2  0  0  0
  7 11  1  0  0  0
  8  9  1  0  0  0
  9 10  2  0  0  0
 10 11  1  0  0  0
 11 12  1  0  0  0
 12 13  1  0  0  0
 12 34  1  0  0  0
 34 35  2  0  0  0
 34 39  1  0  0  0
 35 36  1  0  0  0
 36 37  2  0  0  0
 36 40  1  0  0  0
 37 38  1  0  0  0
 38 39  2  0  0  0
 18 19  2  0  0  0
 19 20  1  0  0  0
 20 21  2  0  0  0
 21 22  1  0  0  0
 22 23  2  0  0  0
 23 24  1  0  0  0
 24 25  2  0  0  0
 25 26  1  0  0  0
 19 27  1  0  0  0
 27 28  1  0  0  0
 28 29  1  0  0  0
 29 30  1  0  0  0
 30 31  1  0  0  0
 31 32  1  0  0  0
 28 33  1  0  0  0
 32 28  1  0  0  0
 33 18  1  0  0  0
 26 21  1  0  0  0
 17 18  1  0  0  0
 17 26  2  0  0  0
  6 15  1  0  0  0
 40 41  1  0  0  0
 14 16  1  0  0  0
M  CHG 1  28   1
M  END
> <minimizedAffinity>
-8.22698

> <minimizedRMSD>
0.75267

> <CNNscore>
0.9846350551

> <CNNaffinity>
6.7502708435

> <CNNgradient>
0.0013608938

$$$$
