


 44 49  0  0  0  0  0  0  0  0999 V2000
   -7.7133    4.9765    6.7579 C   0  0  0  0  0  0  0  0  0  0  0  0
   -6.5112    5.5913    6.7514 N   0  0  0  0  0  0  0  0  0  0  0  0
   -6.2209    6.4946    7.7252 N   0  0  0  0  0  0  0  0  0  0  0  0
   -7.1383    6.7517    8.6820 C   0  0  0  0  0  0  0  0  0  0  0  0
   -8.3805    6.1422    8.7263 C   0  0  0  0  0  0  0  0  0  0  0  0
   -9.2983    6.4144    9.7550 N   0  0  0  0  0  0  0  0  0  0  0  0
  -10.4754    5.7642    9.8359 C   0  0  0  0  0  0  0  0  0  0  0  0
  -11.4489    5.7933   10.7194 N   0  0  0  0  0  0  0  0  0  0  0  0
  -12.3804    4.8709   10.2886 N   0  0  0  0  0  0  0  0  0  0  0  0
  -11.9922    4.2859    9.1605 N   0  0  0  0  0  0  0  0  0  0  0  0
  -10.8177    4.8619    8.8646 N   0  0  0  0  0  0  0  0  0  0  0  0
  -10.0351    4.5189    7.6782 C   0  0  0  0  0  0  0  0  0  0  0  0
   -8.6860    5.2226    7.7145 C   0  0  0  0  0  0  0  0  0  0  0  0
   -6.7804    7.6605    9.6424 O   0  0  0  0  0  0  0  0  0  0  0  0
   -9.0763    7.0948   10.4311 H   0  0  0  0  0  0  0  0  0  0  0  0
   -5.9387    8.0708    9.6087 H   0  0  0  0  0  0  0  0  0  0  0  0
  -10.8405    4.8981    6.4742 C   0  0  0  0  0  0  0  0  0  0  0  0
  -11.0355    6.2433    6.1609 C   0  0  0  0  0  0  0  0  0  0  0  0
  -11.7854    6.5966    5.0387 C   0  0  0  0  0  0  0  0  0  0  0  0
  -12.3423    5.6051    4.2319 C   0  0  0  0  0  0  0  0  0  0  0  0
  -12.1485    4.2590    4.5454 C   0  0  0  0  0  0  0  0  0  0  0  0
  -11.3964    3.9065    5.6674 C   0  0  0  0  0  0  0  0  0  0  0  0
  -11.9756    7.9087    4.7329 O   0  0  0  0  0  0  0  0  0  0  0  0
  -11.6015    8.5751    5.2749 H   0  0  0  0  0  0  0  0  0  0  0  0
   -7.8732    4.0233    5.6834 C   0  0  0  0  0  0  0  0  0  0  0  0
   -7.7579    2.6736    5.8626 N   0  0  0  0  0  0  0  0  0  0  0  0
   -7.9217    1.7831    4.8838 N   0  0  0  0  0  0  0  0  0  0  0  0
   -8.2472    2.1831    3.6281 C   0  0  0  0  0  0  0  0  0  0  0  0
   -8.3998    3.5048    3.3626 N   0  0  0  0  0  0  0  0  0  0  0  0
   -8.2358    4.4291    4.3418 C   0  0  0  0  0  0  0  0  0  0  0  0
   -8.3677    5.7798    4.0407 O   0  0  0  0  0  0  0  0  0  0  0  0
   -8.4652    0.9746    2.3277 S   0  0  0  0  0  0  0  0  0  0  0  0
   -8.5714    2.2346    1.0151 C   0  0  0  0  0  0  0  0  0  0  0  0
   -9.9990    2.4262    0.6106 C   0  0  0  0  0  0  0  0  0  0  0  0
  -10.3822    2.0122   -0.5168 O   0  0  0  0  0  0  0  0  0  0  0  0
  -10.9240    3.0510    1.5155 N   0  0  0  0  0  0  0  0  0  0  0  0
  -10.6187    3.2338    2.4334 H   0  0  0  0  0  0  0  0  0  0  0  0
  -12.2672    3.4263    1.1655 C   0  0  0  0  0  0  0  0  0  0  0  0
  -12.5627    4.6996    0.6441 C   0  0  0  0  0  0  0  0  0  0  0  0
  -13.8817    5.0466    0.3350 C   0  0  0  0  0  0  0  0  0  0  0  0
  -14.9178    4.1339    0.5553 C   0  0  0  0  0  0  0  0  0  0  0  0
  -16.5718    4.5724    0.1687 Cl  0  0  0  0  0  0  0  0  0  0  0  0
  -14.6349    2.8755    1.0947 C   0  0  0  0  0  0  0  0  0  0  0  0
  -13.3171    2.5263    1.4056 C   0  0  0  0  0  0  0  0  0  0  0  0
  1  2  2  0  0  0
  1 13  1  0  0  0
  1 25  1  0  0  0
  2  3  1  0  0  0
  3  4  2  0  0  0
  4  5  1  0  0  0
  4 14  1  0  0  0
  5  6  1  0  0  0
  5 13  2  0  0  0
  6  7  1  0  0  0
  7  8  2  0  0  0
  7 11  1  0  0  0
  8  9  1  0  0  0
  9 10  2  0  0  0
 10 11  1  0  0  0
 11 12  1  0  0  0
 12 13  1  0  0  0
 12 17  1  0  0  0
 17 18  2  0  0  0
 17 22  1  0  0  0
 18 19  1  0  0  0
 19 20  2  0  0  0
 19 23  1  0  0  0
 20 21  1  0  0  0
 21 22  2  0  0  0
 26 27  2  0  0  0
 27 28  1  0  0  0
 28 32  1  0  0  0
 32 33  1  0  0  0
 33 34  1  0  0  0
 34 35  2  0  0  0
 34 36  1  0  0  0
 36 38  1  0  0  0
 38 39  2  0  0  0
 39 40  1  0  0  0
 40 41  2  0  0  0
 41 42  1  0  0  0
 41 43  1  0  0  0
 43 44  2  0  0  0
 28 29  2  0  0  0
 29 30  1  0  0  0
 30 31  1  0  0  0
 44 38  1  0  0  0
 25 26  1  0  0  0
 25 30  2  0  0  0
  6 15  1  0  0  0
 23 24  1  0  0  0
 14 16  1  0  0  0
 36 37  1  0  0  0
M  CHG 1  31  -1
M  END
> <minimizedAffinity>
-6.78505

> <minimizedRMSD>
3.98388

> <CNNaffinity>
-1.0000000000

> <CNNgradient>
15.7197513580

$$$$



 44 49  0  0  0  0  0  0  0  0999 V2000
   -7.6073    5.1463    6.6024 C   0  0  0  0  0  0  0  0  0  0  0  0
   -6.4367    5.8140    6.6858 N   0  0  0  0  0  0  0  0  0  0  0  0
   -6.2235    6.6544    7.7330 N   0  0  0  0  0  0  0  0  0  0  0  0
   -7.1843    6.7973    8.6711 C   0  0  0  0  0  0  0  0  0  0  0  0
   -8.3964    6.1302    8.6243 C   0  0  0  0  0  0  0  0  0  0  0  0
   -9.3606    6.2828    9.6351 N   0  0  0  0  0  0  0  0  0  0  0  0
  -10.5071    5.5754    9.6241 C   0  0  0  0  0  0  0  0  0  0  0  0
  -11.5103    5.4940   10.4704 N   0  0  0  0  0  0  0  0  0  0  0  0
  -12.3811    4.5648    9.9388 N   0  0  0  0  0  0  0  0  0  0  0  0
  -11.9270    4.0840    8.7864 N   0  0  0  0  0  0  0  0  0  0  0  0
  -10.7723    4.7335    8.5775 N   0  0  0  0  0  0  0  0  0  0  0  0
   -9.9342    4.5159    7.3993 C   0  0  0  0  0  0  0  0  0  0  0  0
   -8.6227    5.2758    7.5373 C   0  0  0  0  0  0  0  0  0  0  0  0
   -6.9034    7.6473    9.7079 O   0  0  0  0  0  0  0  0  0  0  0  0
   -9.1948    6.9202   10.3668 H   0  0  0  0  0  0  0  0  0  0  0  0
   -6.0818    8.0968    9.7358 H   0  0  0  0  0  0  0  0  0  0  0  0
  -10.7157    4.9469    6.1969 C   0  0  0  0  0  0  0  0  0  0  0  0
  -11.0363    6.2927    6.0191 C   0  0  0  0  0  0  0  0  0  0  0  0
  -11.7639    6.6943    4.8984 C   0  0  0  0  0  0  0  0  0  0  0  0
  -12.1729    5.7500    3.9576 C   0  0  0  0  0  0  0  0  0  0  0  0
  -11.8532    4.4032    4.1353 C   0  0  0  0  0  0  0  0  0  0  0  0
  -11.1237    4.0026    5.2561 C   0  0  0  0  0  0  0  0  0  0  0  0
  -12.0767    8.0070    4.7247 O   0  0  0  0  0  0  0  0  0  0  0  0
  -11.8019    8.6417    5.3568 H   0  0  0  0  0  0  0  0  0  0  0  0
   -7.6845    4.2697    5.4560 C   0  0  0  0  0  0  0  0  0  0  0  0
   -8.0348    4.7045    4.2089 N   0  0  0  0  0  0  0  0  0  0  0  0
   -8.0923    3.9096    3.1400 N   0  0  0  0  0  0  0  0  0  0  0  0
   -7.7725    2.5936    3.2346 C   0  0  0  0  0  0  0  0  0  0  0  0
   -7.3912    2.0800    4.4309 N   0  0  0  0  0  0  0  0  0  0  0  0
   -7.3279    2.8686    5.5327 C   0  0  0  0  0  0  0  0  0  0  0  0
   -6.9660    2.3140    6.7549 O   0  0  0  0  0  0  0  0  0  0  0  0
   -7.8464    1.5447    1.7846 S   0  0  0  0  0  0  0  0  0  0  0  0
   -9.5925    1.0583    2.0188 C   0  0  0  0  0  0  0  0  0  0  0  0
   -9.6839   -0.2319    2.7858 C   0  0  0  0  0  0  0  0  0  0  0  0
   -8.6300   -0.7612    3.2281 O   0  0  0  0  0  0  0  0  0  0  0  0
  -10.9365   -0.9042    2.9868 N   0  0  0  0  0  0  0  0  0  0  0  0
  -10.9295   -1.8882    3.0153 H   0  0  0  0  0  0  0  0  0  0  0  0
  -12.2000   -0.2387    3.1494 C   0  0  0  0  0  0  0  0  0  0  0  0
  -12.4652    0.5615    4.2759 C   0  0  0  0  0  0  0  0  0  0  0  0
  -13.7120    1.1762    4.4267 C   0  0  0  0  0  0  0  0  0  0  0  0
  -14.7090    0.9856    3.4648 C   0  0  0  0  0  0  0  0  0  0  0  0
  -16.2733    1.7558    3.6567 Cl  0  0  0  0  0  0  0  0  0  0  0  0
  -14.4605    0.1722    2.3548 C   0  0  0  0  0  0  0  0  0  0  0  0
  -13.2143   -0.4436    2.2018 C   0  0  0  0  0  0  0  0  0  0  0  0
  1  2  2  0  0  0
  1 13  1  0  0  0
  1 25  1  0  0  0
  2  3  1  0  0  0
  3  4  2  0  0  0
  4  5  1  0  0  0
  4 14  1  0  0  0
  5  6  1  0  0  0
  5 13  2  0  0  0
  6  7  1  0  0  0
  7  8  2  0  0  0
  7 11  1  0  0  0
  8  9  1  0  0  0
  9 10  2  0  0  0
 10 11  1  0  0  0
 11 12  1  0  0  0
 12 13  1  0  0  0
 12 17  1  0  0  0
 17 18  2  0  0  0
 17 22  1  0  0  0
 18 19  1  0  0  0
 19 20  2  0  0  0
 19 23  1  0  0  0
 20 21  1  0  0  0
 21 22  2  0  0  0
 26 27  2  0  0  0
 27 28  1  0  0  0
 28 32  1  0  0  0
 32 33  1  0  0  0
 33 34  1  0  0  0
 34 35  2  0  0  0
 34 36  1  0  0  0
 36 38  1  0  0  0
 38 39  2  0  0  0
 39 40  1  0  0  0
 40 41  2  0  0  0
 41 42  1  0  0  0
 41 43  1  0  0  0
 43 44  2  0  0  0
 28 29  2  0  0  0
 29 30  1  0  0  0
 30 31  1  0  0  0
 44 38  1  0  0  0
 25 26  1  0  0  0
 25 30  2  0  0  0
  6 15  1  0  0  0
 23 24  1  0  0  0
 14 16  1  0  0  0
 36 37  1  0  0  0
M  CHG 1  31  -1
M  END
> <minimizedAffinity>
-7.29829

> <minimizedRMSD>
5.05693

> <CNNaffinity>
-1.0000000000

> <CNNgradient>
12.8437728882

$$$$



 30 34  0  0  0  0  0  0  0  0999 V2000
   -7.5780    5.1444    6.5434 C   0  0  0  0  0  0  0  0  0  0  0  0
   -6.4056    5.8109    6.6086 N   0  0  0  0  0  0  0  0  0  0  0  0
   -6.1757    6.6521    7.6516 N   0  0  0  0  0  0  0  0  0  0  0  0
   -7.1222    6.7972    8.6037 C   0  0  0  0  0  0  0  0  0  0  0  0
   -8.3357    6.1314    8.5759 C   0  0  0  0  0  0  0  0  0  0  0  0
   -9.2844    6.2862    9.6008 N   0  0  0  0  0  0  0  0  0  0  0  0
  -10.4318    5.5801    9.6078 C   0  0  0  0  0  0  0  0  0  0  0  0
  -11.4222    5.5008   10.4691 N   0  0  0  0  0  0  0  0  0  0  0  0
  -12.3020    4.5720    9.9516 N   0  0  0  0  0  0  0  0  0  0  0  0
  -11.8657    4.0894    8.7931 N   0  0  0  0  0  0  0  0  0  0  0  0
  -10.7136    4.7373    8.5662 N   0  0  0  0  0  0  0  0  0  0  0  0
   -9.8934    4.5175    7.3758 C   0  0  0  0  0  0  0  0  0  0  0  0
   -8.5792    5.2761    7.4934 C   0  0  0  0  0  0  0  0  0  0  0  0
   -6.8249    7.6480    9.6353 O   0  0  0  0  0  0  0  0  0  0  0  0
   -9.1070    6.9242   10.3292 H   0  0  0  0  0  0  0  0  0  0  0  0
   -6.0024    8.0967    9.6504 H   0  0  0  0  0  0  0  0  0  0  0  0
  -10.6923    4.9480    6.1848 C   0  0  0  0  0  0  0  0  0  0  0  0
  -11.0119    6.2944    6.0090 C   0  0  0  0  0  0  0  0  0  0  0  0
  -11.7557    6.6956    4.8988 C   0  0  0  0  0  0  0  0  0  0  0  0
  -12.1820    5.7503    3.9666 C   0  0  0  0  0  0  0  0  0  0  0  0
  -11.8634    4.4030    4.1424 C   0  0  0  0  0  0  0  0  0  0  0  0
  -11.1176    4.0028    5.2526 C   0  0  0  0  0  0  0  0  0  0  0  0
  -12.0675    8.0088    4.7270 O   0  0  0  0  0  0  0  0  0  0  0  0
  -11.7812    8.6441    5.3534 H   0  0  0  0  0  0  0  0  0  0  0  0
   -7.6734    4.2666    5.3994 C   0  0  0  0  0  0  0  0  0  0  0  0
   -7.9883    4.5537    4.0804 C   0  0  0  0  0  0  0  0  0  0  0  0
   -7.8400    3.3948    3.3442 C   0  0  0  0  0  0  0  0  0  0  0  0
   -7.4282    2.4195    4.1232 O   0  0  0  0  0  0  0  0  0  0  0  0
   -7.2976    2.8810    5.3459 C   0  0  0  0  0  0  0  0  0  0  0  0
   -6.8757    2.0399    6.5061 C   0  0  0  0  0  0  0  0  0  0  0  0
  1  2  2  0  0  0
  1 13  1  0  0  0
  1 25  1  0  0  0
  2  3  1  0  0  0
  3  4  2  0  0  0
  4  5  1  0  0  0
  4 14  1  0  0  0
  5  6  1  0  0  0
  5 13  2  0  0  0
  6  7  1  0  0  0
  7  8  2  0  0  0
  7 11  1  0  0  0
  8  9  1  0  0  0
  9 10  2  0  0  0
 10 11  1  0  0  0
 11 12  1  0  0  0
 12 13  1  0  0  0
 12 17  1  0  0  0
 17 18  2  0  0  0
 17 22  1  0  0  0
 18 19  1  0  0  0
 19 20  2  0  0  0
 19 23  1  0  0  0
 20 21  1  0  0  0
 21 22  2  0  0  0
 26 27  2  0  0  0
 27 28  1  0  0  0
 28 29  1  0  0  0
 29 30  1  0  0  0
 25 26  1  0  0  0
 25 29  2  0  0  0
  6 15  1  0  0  0
 23 24  1  0  0  0
 14 16  1  0  0  0
M  END
> <minimizedAffinity>
-7.53332

> <minimizedRMSD>
1.16789

> <CNNaffinity>
-1.0000000000

> <CNNgradient>
10.7788915634

$$$$



 40 46  0  0  0  0  0  0  0  0999 V2000
   -7.6646    5.0928    6.4682 C   0  0  0  0  0  0  0  0  0  0  0  0
   -6.4799    5.7393    6.5075 N   0  0  0  0  0  0  0  0  0  0  0  0
   -6.2134    6.5771    7.5446 N   0  0  0  0  0  0  0  0  0  0  0  0
   -7.1365    6.7386    8.5168 C   0  0  0  0  0  0  0  0  0  0  0  0
   -8.3614    6.0935    8.5156 C   0  0  0  0  0  0  0  0  0  0  0  0
   -9.2851    6.2648    9.5607 N   0  0  0  0  0  0  0  0  0  0  0  0
  -10.4438    5.5783    9.5930 C   0  0  0  0  0  0  0  0  0  0  0  0
  -11.4167    5.5162   10.4755 N   0  0  0  0  0  0  0  0  0  0  0  0
  -12.3230    4.6023    9.9779 N   0  0  0  0  0  0  0  0  0  0  0  0
  -11.9201    4.1118    8.8107 N   0  0  0  0  0  0  0  0  0  0  0  0
  -10.7623    4.7399    8.5584 N   0  0  0  0  0  0  0  0  0  0  0  0
   -9.9719    4.5057    7.3508 C   0  0  0  0  0  0  0  0  0  0  0  0
   -8.6427    5.2419    7.4394 C   0  0  0  0  0  0  0  0  0  0  0  0
   -6.8026    7.5847    9.5410 O   0  0  0  0  0  0  0  0  0  0  0  0
   -9.0812    6.9001   10.2846 H   0  0  0  0  0  0  0  0  0  0  0  0
   -5.9726    8.0194    9.5379 H   0  0  0  0  0  0  0  0  0  0  0  0
   -7.7995    4.2162    5.3272 C   0  0  0  0  0  0  0  0  0  0  0  0
   -8.2032    4.6878    4.0606 C   0  0  0  0  0  0  0  0  0  0  0  0
   -8.1956    3.8784    2.9123 C   0  0  0  0  0  0  0  0  0  0  0  0
   -7.7315    2.6024    3.0040 N   0  0  0  0  0  0  0  0  0  0  0  0
   -7.2925    2.0665    4.1725 C   0  0  0  0  0  0  0  0  0  0  0  0
   -6.8469    0.7402    4.2019 C   0  0  0  0  0  0  0  0  0  0  0  0
   -6.4165    0.1712    5.4024 C   0  0  0  0  0  0  0  0  0  0  0  0
   -6.4350    0.9216    6.5800 C   0  0  0  0  0  0  0  0  0  0  0  0
   -6.8756    2.2480    6.5630 C   0  0  0  0  0  0  0  0  0  0  0  0
   -7.2961    2.8426    5.3555 C   0  0  0  0  0  0  0  0  0  0  0  0
   -8.6574    4.3888    1.5962 C   0  0  0  0  0  0  0  0  0  0  0  0
   -9.5980    5.4345    1.5024 C   0  0  0  0  0  0  0  0  0  0  0  0
  -10.0239    5.8945    0.2523 C   0  0  0  0  0  0  0  0  0  0  0  0
   -9.5239    5.3158   -0.9158 C   0  0  0  0  0  0  0  0  0  0  0  0
   -8.6007    4.2715   -0.8370 C   0  0  0  0  0  0  0  0  0  0  0  0
   -8.1717    3.8065    0.4097 C   0  0  0  0  0  0  0  0  0  0  0  0
  -10.7889    4.9492    6.1770 C   0  0  0  0  0  0  0  0  0  0  0  0
  -11.0624    6.3040    5.9895 C   0  0  0  0  0  0  0  0  0  0  0  0
  -11.8231    6.7173    4.8953 C   0  0  0  0  0  0  0  0  0  0  0  0
  -12.3122    5.7756    3.9908 C   0  0  0  0  0  0  0  0  0  0  0  0
  -12.0397    4.4198    4.1782 C   0  0  0  0  0  0  0  0  0  0  0  0
  -11.2769    4.0075    5.2723 C   0  0  0  0  0  0  0  0  0  0  0  0
  -12.0899    8.0388    4.7122 O   0  0  0  0  0  0  0  0  0  0  0  0
  -11.7614    8.6717    5.3200 H   0  0  0  0  0  0  0  0  0  0  0  0
  1  2  2  0  0  0
  1 13  1  0  0  0
  1 17  1  0  0  0
  2  3  1  0  0  0
  3  4  2  0  0  0
  4  5  1  0  0  0
  4 14  1  0  0  0
  5  6  1  0  0  0
  5 13  2  0  0  0
  6  7  1  0  0  0
  7  8  2  0  0  0
  7 11  1  0  0  0
  8  9  1  0  0  0
  9 10  2  0  0  0
 10 11  1  0  0  0
 11 12  1  0  0  0
 12 13  1  0  0  0
 12 33  1  0  0  0
 33 34  2  0  0  0
 33 38  1  0  0  0
 34 35  1  0  0  0
 35 36  2  0  0  0
 35 39  1  0  0  0
 36 37  1  0  0  0
 37 38  2  0  0  0
 18 19  2  0  0  0
 19 27  1  0  0  0
 27 28  2  0  0  0
 28 29  1  0  0  0
 29 30  2  0  0  0
 30 31  1  0  0  0
 31 32  2  0  0  0
 19 20  1  0  0  0
 20 21  2  0  0  0
 21 22  1  0  0  0
 22 23  2  0  0  0
 23 24  1  0  0  0
 24 25  2  0  0  0
 25 26  1  0  0  0
 32 27  1  0  0  0
 26 21  1  0  0  0
 17 18  1  0  0  0
 17 26  2  0  0  0
  6 15  1  0  0  0
 39 40  1  0  0  0
 14 16  1  0  0  0
M  END
> <minimizedAffinity>
-7.70150

> <minimizedRMSD>
3.86342

> <CNNaffinity>
-1.0000000000

> <CNNgradient>
12.6766576767

$$$$



 33 37  0  0  0  0  0  0  0  0999 V2000
   -7.6366    5.0333    6.8024 C   0  0  0  0  0  0  0  0  0  0  0  0
   -6.4543    5.6819    6.8709 N   0  0  0  0  0  0  0  0  0  0  0  0
   -6.2386    6.5668    7.8802 N   0  0  0  0  0  0  0  0  0  0  0  0
   -7.2088    6.7724    8.7967 C   0  0  0  0  0  0  0  0  0  0  0  0
   -8.4331    6.1269    8.7641 C   0  0  0  0  0  0  0  0  0  0  0  0
   -9.4076    6.3456    9.7527 N   0  0  0  0  0  0  0  0  0  0  0  0
  -10.5675    5.6603    9.7588 C   0  0  0  0  0  0  0  0  0  0  0  0
  -11.5832    5.6383   10.5936 N   0  0  0  0  0  0  0  0  0  0  0  0
  -12.4650    4.7016   10.0941 N   0  0  0  0  0  0  0  0  0  0  0  0
  -12.0051    4.1581    8.9723 N   0  0  0  0  0  0  0  0  0  0  0  0
  -10.8352    4.7749    8.7494 N   0  0  0  0  0  0  0  0  0  0  0  0
   -9.9859    4.4858    7.5949 C   0  0  0  0  0  0  0  0  0  0  0  0
   -8.6616    5.2263    7.7156 C   0  0  0  0  0  0  0  0  0  0  0  0
   -6.9252    7.6651    9.7961 O   0  0  0  0  0  0  0  0  0  0  0  0
   -9.2390    7.0137   10.4558 H   0  0  0  0  0  0  0  0  0  0  0  0
   -6.0954    8.0998    9.8144 H   0  0  0  0  0  0  0  0  0  0  0  0
  -10.7426    4.8739    6.3625 C   0  0  0  0  0  0  0  0  0  0  0  0
  -11.0076    6.2182    6.1012 C   0  0  0  0  0  0  0  0  0  0  0  0
  -11.7122    6.5799    4.9525 C   0  0  0  0  0  0  0  0  0  0  0  0
  -12.1537    5.5973    4.0672 C   0  0  0  0  0  0  0  0  0  0  0  0
  -11.8897    4.2520    4.3285 C   0  0  0  0  0  0  0  0  0  0  0  0
  -11.1831    3.8913    5.4771 C   0  0  0  0  0  0  0  0  0  0  0  0
  -11.9707    7.8911    4.6974 O   0  0  0  0  0  0  0  0  0  0  0  0
  -11.6741    8.5515    5.2922 H   0  0  0  0  0  0  0  0  0  0  0  0
   -7.7157    4.1049    5.6977 C   0  0  0  0  0  0  0  0  0  0  0  0
   -7.7869    2.6954    5.8605 C   0  0  0  0  0  0  0  0  0  0  0  0
   -8.0270    1.7982    4.8188 C   0  0  0  0  0  0  0  0  0  0  0  0
   -8.2937    2.2732    3.5352 C   0  0  0  0  0  0  0  0  0  0  0  0
   -8.3168    3.6471    3.2878 C   0  0  0  0  0  0  0  0  0  0  0  0
   -8.0790    4.5666    4.3244 C   0  0  0  0  0  0  0  0  0  0  0  0
   -8.0590    6.0413    3.9820 C   0  0  0  0  0  0  0  0  0  0  0  0
   -7.0615    6.3241    3.0199 O   0  0  0  0  0  0  0  0  0  0  0  0
   -6.0558    7.1371    3.5851 C   0  0  0  0  0  0  0  0  0  0  0  0
  1  2  2  0  0  0
  1 13  1  0  0  0
  1 25  1  0  0  0
  2  3  1  0  0  0
  3  4  2  0  0  0
  4  5  1  0  0  0
  4 14  1  0  0  0
  5  6  1  0  0  0
  5 13  2  0  0  0
  6  7  1  0  0  0
  7  8  2  0  0  0
  7 11  1  0  0  0
  8  9  1  0  0  0
  9 10  2  0  0  0
 10 11  1  0  0  0
 11 12  1  0  0  0
 12 13  1  0  0  0
 12 17  1  0  0  0
 17 18  2  0  0  0
 17 22  1  0  0  0
 18 19  1  0  0  0
 19 20  2  0  0  0
 19 23  1  0  0  0
 20 21  1  0  0  0
 21 22  2  0  0  0
 26 27  2  0  0  0
 27 28  1  0  0  0
 28 29  2  0  0  0
 29 30  1  0  0  0
 30 31  1  0  0  0
 31 32  1  0  0  0
 32 33  1  0  0  0
 25 26  1  0  0  0
 25 30  2  0  0  0
  6 15  1  0  0  0
 23 24  1  0  0  0
 14 16  1  0  0  0
M  END
> <minimizedAffinity>
-7.24192

> <minimizedRMSD>
0.67773

> <CNNaffinity>
-1.0000000000

> <CNNgradient>
19.6164913177

$$$$



 34 38  0  0  0  0  0  0  0  0999 V2000
   -7.5731    5.0015    6.8447 C   0  0  0  0  0  0  0  0  0  0  0  0
   -6.3890    5.6485    6.8925 N   0  0  0  0  0  0  0  0  0  0  0  0
   -6.1684    6.5603    7.8765 N   0  0  0  0  0  0  0  0  0  0  0  0
   -7.1358    6.7937    8.7893 C   0  0  0  0  0  0  0  0  0  0  0  0
   -8.3619    6.1510    8.7774 C   0  0  0  0  0  0  0  0  0  0  0  0
   -9.3333    6.3995    9.7619 N   0  0  0  0  0  0  0  0  0  0  0  0
  -10.4951    5.7179    9.7897 C   0  0  0  0  0  0  0  0  0  0  0  0
  -11.5088    5.7216   10.6272 N   0  0  0  0  0  0  0  0  0  0  0  0
  -12.3943    4.7740   10.1558 N   0  0  0  0  0  0  0  0  0  0  0  0
  -11.9386    4.1985    9.0483 N   0  0  0  0  0  0  0  0  0  0  0  0
  -10.7676    4.8057    8.8057 N   0  0  0  0  0  0  0  0  0  0  0  0
   -9.9219    4.4825    7.6576 C   0  0  0  0  0  0  0  0  0  0  0  0
   -8.5954    5.2224    7.7547 C   0  0  0  0  0  0  0  0  0  0  0  0
   -6.8473    7.7128    9.7631 O   0  0  0  0  0  0  0  0  0  0  0  0
   -9.1613    7.0863   10.4460 H   0  0  0  0  0  0  0  0  0  0  0  0
   -6.0163    8.1456    9.7674 H   0  0  0  0  0  0  0  0  0  0  0  0
   -7.6575    4.0433    5.7662 C   0  0  0  0  0  0  0  0  0  0  0  0
   -7.5481    2.6559    5.9808 C   0  0  0  0  0  0  0  0  0  0  0  0
   -7.6782    1.7148    4.9479 C   0  0  0  0  0  0  0  0  0  0  0  0
   -7.4589    0.2570    5.2403 C   0  0  0  0  0  0  0  0  0  0  0  0
   -7.9345    2.1497    3.6327 C   0  0  0  0  0  0  0  0  0  0  0  0
   -8.0983    3.5249    3.3831 C   0  0  0  0  0  0  0  0  0  0  0  0
   -7.9815    4.4588    4.4176 C   0  0  0  0  0  0  0  0  0  0  0  0
   -8.0837    6.1708    4.0165 Cl  0  0  0  0  0  0  0  0  0  0  0  0
   -8.0083    1.1955    2.6044 O   0  0  0  0  0  0  0  0  0  0  0  0
   -8.2471    1.5017    1.2341 C   0  0  0  0  0  0  0  0  0  0  0  0
  -10.6806    4.8387    6.4167 C   0  0  0  0  0  0  0  0  0  0  0  0
  -10.9832    6.1725    6.1429 C   0  0  0  0  0  0  0  0  0  0  0  0
  -11.6896    6.5044    4.9864 C   0  0  0  0  0  0  0  0  0  0  0  0
  -12.0954    5.5024    4.1057 C   0  0  0  0  0  0  0  0  0  0  0  0
  -11.7938    4.1676    4.3796 C   0  0  0  0  0  0  0  0  0  0  0  0
  -11.0854    3.8367    5.5360 C   0  0  0  0  0  0  0  0  0  0  0  0
  -11.9848    7.8054    4.7190 O   0  0  0  0  0  0  0  0  0  0  0  0
  -11.7121    8.4788    5.3108 H   0  0  0  0  0  0  0  0  0  0  0  0
  1  2  2  0  0  0
  1 13  1  0  0  0
  1 17  1  0  0  0
  2  3  1  0  0  0
  3  4  2  0  0  0
  4  5  1  0  0  0
  4 14  1  0  0  0
  5  6  1  0  0  0
  5 13  2  0  0  0
  6  7  1  0  0  0
  7  8  2  0  0  0
  7 11  1  0  0  0
  8  9  1  0  0  0
  9 10  2  0  0  0
 10 11  1  0  0  0
 11 12  1  0  0  0
 12 13  1  0  0  0
 12 27  1  0  0  0
 27 28  2  0  0  0
 27 32  1  0  0  0
 28 29  1  0  0  0
 29 30  2  0  0  0
 29 33  1  0  0  0
 30 31  1  0  0  0
 31 32  2  0  0  0
 18 19  2  0  0  0
 19 20  1  0  0  0
 19 21  1  0  0  0
 21 25  1  0  0  0
 25 26  1  0  0  0
 21 22  2  0  0  0
 22 23  1  0  0  0
 23 24  1  0  0  0
 17 18  1  0  0  0
 17 23  2  0  0  0
  6 15  1  0  0  0
 33 34  1  0  0  0
 14 16  1  0  0  0
M  END
> <minimizedAffinity>
-7.65504

> <minimizedRMSD>
0.48474

> <CNNaffinity>
-1.0000000000

> <CNNgradient>
15.1380643845

$$$$



 44 50  0  0  0  0  0  0  0  0999 V2000
   -7.6597    5.0197    6.8149 C   0  0  0  0  0  0  0  0  0  0  0  0
   -6.4713    5.6577    6.8766 N   0  0  0  0  0  0  0  0  0  0  0  0
   -6.2446    6.5460    7.8805 N   0  0  0  0  0  0  0  0  0  0  0  0
   -7.2102    6.7653    8.7986 C   0  0  0  0  0  0  0  0  0  0  0  0
   -8.4405    6.1309    8.7731 C   0  0  0  0  0  0  0  0  0  0  0  0
   -9.4099    6.3638    9.7633 N   0  0  0  0  0  0  0  0  0  0  0  0
  -10.5761    5.6893    9.7764 C   0  0  0  0  0  0  0  0  0  0  0  0
  -11.5896    5.6810   10.6142 N   0  0  0  0  0  0  0  0  0  0  0  0
  -12.4813    4.7499   10.1222 N   0  0  0  0  0  0  0  0  0  0  0  0
  -12.0297    4.1962    9.0020 N   0  0  0  0  0  0  0  0  0  0  0  0
  -10.8548    4.8010    8.7725 N   0  0  0  0  0  0  0  0  0  0  0  0
  -10.0116    4.4980    7.6171 C   0  0  0  0  0  0  0  0  0  0  0  0
   -8.6803    5.2269    7.7300 C   0  0  0  0  0  0  0  0  0  0  0  0
   -6.9155    7.6607    9.7925 O   0  0  0  0  0  0  0  0  0  0  0  0
   -9.2332    7.0341   10.4623 H   0  0  0  0  0  0  0  0  0  0  0  0
   -6.0816    8.0878    9.8061 H   0  0  0  0  0  0  0  0  0  0  0  0
  -10.7683    4.8865    6.3848 C   0  0  0  0  0  0  0  0  0  0  0  0
  -11.0332    6.2309    6.1238 C   0  0  0  0  0  0  0  0  0  0  0  0
  -11.7377    6.5929    4.9753 C   0  0  0  0  0  0  0  0  0  0  0  0
  -12.1794    5.6107    4.0897 C   0  0  0  0  0  0  0  0  0  0  0  0
  -11.9156    4.2653    4.3507 C   0  0  0  0  0  0  0  0  0  0  0  0
  -11.2090    3.9042    5.4992 C   0  0  0  0  0  0  0  0  0  0  0  0
  -11.9961    7.9042    4.7204 O   0  0  0  0  0  0  0  0  0  0  0  0
  -11.6993    8.5644    5.3154 H   0  0  0  0  0  0  0  0  0  0  0  0
   -7.7505    4.0862    5.7154 C   0  0  0  0  0  0  0  0  0  0  0  0
   -7.6535    2.6892    5.8362 C   0  0  0  0  0  0  0  0  0  0  0  0
   -7.8747    1.9481    4.3445 S   0  0  0  0  0  0  0  0  0  0  0  0
   -8.1482    3.4039    3.5391 C   0  0  0  0  0  0  0  0  0  0  0  0
   -8.3570    3.5247    2.2603 N   0  0  0  0  0  0  0  0  0  0  0  0
   -8.0815    4.4637    4.3856 N   0  0  0  0  0  0  0  0  0  0  0  0
   -8.4228    2.4155    1.3529 C   0  0  0  0  0  0  0  0  0  0  0  0
   -7.2418    1.9340    0.7497 C   0  0  0  0  0  0  0  0  0  0  0  0
   -5.9156    2.5781    1.0466 C   0  0  0  0  0  0  0  0  0  0  0  0
   -7.3102    0.8456   -0.1337 C   0  0  0  0  0  0  0  0  0  0  0  0
   -8.5359    0.2413   -0.4152 C   0  0  0  0  0  0  0  0  0  0  0  0
   -9.7074    0.7232    0.1696 C   0  0  0  0  0  0  0  0  0  0  0  0
   -9.6667    1.8222    1.0415 C   0  0  0  0  0  0  0  0  0  0  0  0
  -10.9416    2.3259    1.6623 C   0  0  0  0  0  0  0  0  0  0  0  0
   -8.1502    5.8652    3.9407 C   0  0  0  0  0  0  0  0  0  0  0  0
   -6.7391    6.4383    3.7476 C   0  0  0  0  0  0  0  0  0  0  0  0
   -6.7252    7.5788    2.7421 C   0  0  0  0  0  0  0  0  0  0  0  0
   -5.3721    7.4458    2.1188 C   0  0  0  0  0  0  0  0  0  0  0  0
   -5.0740    5.9671    2.2654 C   0  0  0  0  0  0  0  0  0  0  0  0
   -5.8597    5.4284    3.3043 O   0  0  0  0  0  0  0  0  0  0  0  0
  1  2  2  0  0  0
  1 13  1  0  0  0
  1 25  1  0  0  0
  2  3  1  0  0  0
  3  4  2  0  0  0
  4  5  1  0  0  0
  4 14  1  0  0  0
  5  6  1  0  0  0
  5 13  2  0  0  0
  6  7  1  0  0  0
  7  8  2  0  0  0
  7 11  1  0  0  0
  8  9  1  0  0  0
  9 10  2  0  0  0
 10 11  1  0  0  0
 11 12  1  0  0  0
 12 13  1  0  0  0
 12 17  1  0  0  0
 17 18  2  0  0  0
 17 22  1  0  0  0
 18 19  1  0  0  0
 19 20  2  0  0  0
 19 23  1  0  0  0
 20 21  1  0  0  0
 21 22  2  0  0  0
 26 27  1  0  0  0
 27 28  1  0  0  0
 28 29  2  0  0  0
 29 31  1  0  0  0
 31 32  2  0  0  0
 32 33  1  0  0  0
 32 34  1  0  0  0
 34 35  2  0  0  0
 35 36  1  0  0  0
 36 37  2  0  0  0
 37 38  1  0  0  0
 28 30  1  0  0  0
 30 39  1  0  0  0
 39 40  1  0  0  0
 40 41  1  0  0  0
 41 42  1  0  0  0
 42 43  1  0  0  0
 43 44  1  0  0  0
 44 40  1  0  0  0
 37 31  1  0  0  0
 25 26  2  0  0  0
 25 30  1  0  0  0
  6 15  1  0  0  0
 23 24  1  0  0  0
 14 16  1  0  0  0
M  END
> <minimizedAffinity>
-6.98162

> <minimizedRMSD>
1.32515

> <CNNaffinity>
-1.0000000000

> <CNNgradient>
24.0696849823

$$$$



 53 60  0  0  0  0  0  0  0  0999 V2000
   -7.7292    4.0623    5.6710 C   0  0  0  0  0  0  0  0  0  0  0  0
   -7.6320    2.7087    5.8736 N   0  0  0  0  0  0  0  0  0  0  0  0
   -7.8331    1.7551    4.9319 C   0  0  0  0  0  0  0  0  0  0  0  0
   -7.6405    0.4086    5.2615 C   0  0  0  0  0  0  0  0  0  0  0  0
   -7.8521   -0.5861    4.3050 C   0  0  0  0  0  0  0  0  0  0  0  0
   -8.2636   -0.2409    3.0166 C   0  0  0  0  0  0  0  0  0  0  0  0
   -8.4632    1.1008    2.6776 C   0  0  0  0  0  0  0  0  0  0  0  0
   -8.2444    2.1191    3.6309 C   0  0  0  0  0  0  0  0  0  0  0  0
   -8.4197    3.4909    3.3301 C   0  0  0  0  0  0  0  0  0  0  0  0
   -8.1711    4.4658    4.3274 C   0  0  0  0  0  0  0  0  0  0  0  0
   -8.3339    5.9406    4.0226 C   0  0  0  0  0  0  0  0  0  0  0  0
   -7.5976    5.0051    6.7583 C   0  0  0  0  0  0  0  0  0  0  0  0
   -6.4068    5.6415    6.7719 N   0  0  0  0  0  0  0  0  0  0  0  0
   -6.1429    6.5380    7.7593 N   0  0  0  0  0  0  0  0  0  0  0  0
   -7.0747    6.7670    8.7094 C   0  0  0  0  0  0  0  0  0  0  0  0
   -8.3061    6.1348    8.7334 C   0  0  0  0  0  0  0  0  0  0  0  0
   -9.2392    6.3780    9.7555 N   0  0  0  0  0  0  0  0  0  0  0  0
  -10.4051    5.7059    9.8162 C   0  0  0  0  0  0  0  0  0  0  0  0
  -11.3880    5.7068   10.6898 N   0  0  0  0  0  0  0  0  0  0  0  0
  -12.2982    4.7731   10.2381 N   0  0  0  0  0  0  0  0  0  0  0  0
  -11.8878    4.2088    9.1074 N   0  0  0  0  0  0  0  0  0  0  0  0
  -10.7210    4.8094    8.8308 N   0  0  0  0  0  0  0  0  0  0  0  0
   -9.9201    4.4948    7.6486 C   0  0  0  0  0  0  0  0  0  0  0  0
   -8.5844    5.2222    7.7075 C   0  0  0  0  0  0  0  0  0  0  0  0
   -6.7432    7.6704    9.6842 O   0  0  0  0  0  0  0  0  0  0  0  0
   -9.0365    7.0541   10.4420 H   0  0  0  0  0  0  0  0  0  0  0  0
   -5.9087    8.0961    9.6643 H   0  0  0  0  0  0  0  0  0  0  0  0
  -10.7198    4.8740    6.4408 C   0  0  0  0  0  0  0  0  0  0  0  0
  -10.8550    6.2165    6.0872 C   0  0  0  0  0  0  0  0  0  0  0  0
  -11.5996    6.5698    4.9614 C   0  0  0  0  0  0  0  0  0  0  0  0
  -12.2109    5.5811    4.1914 C   0  0  0  0  0  0  0  0  0  0  0  0
  -12.0768    4.2377    4.5452 C   0  0  0  0  0  0  0  0  0  0  0  0
  -11.3301    3.8851    5.6708 C   0  0  0  0  0  0  0  0  0  0  0  0
  -11.7315    7.8793    4.6162 O   0  0  0  0  0  0  0  0  0  0  0  0
  -11.3208    8.5438    5.1335 H   0  0  0  0  0  0  0  0  0  0  0  0
   -8.8555    3.9074    1.9775 C   0  0  0  0  0  0  0  0  0  0  0  0
  -10.0916    4.0295    1.7575 O   0  0  0  0  0  0  0  0  0  0  0  0
   -7.8960    4.1752    0.9313 N   0  0  0  0  0  0  0  0  0  0  0  0
   -6.4541    4.1422    1.2306 C   0  0  0  0  0  0  0  0  0  0  0  0
   -5.6063    4.2626   -0.0396 C   0  0  0  0  0  0  0  0  0  0  0  0
   -6.0847    5.3738   -0.8742 N   0  0  0  0  0  0  0  0  0  0  0  0
   -7.5308    5.5839   -1.0529 C   0  0  0  0  0  0  0  0  0  0  0  0
   -8.3453    4.4382   -0.4442 C   0  0  0  0  0  0  0  0  0  0  0  0
   -5.1430    6.2050   -1.5891 C   0  0  0  0  0  0  0  0  0  0  0  0
   -5.3757    7.5827   -1.7457 C   0  0  0  0  0  0  0  0  0  0  0  0
   -4.4664    8.3802   -2.4461 C   0  0  0  0  0  0  0  0  0  0  0  0
   -3.3143    7.8153   -2.9955 C   0  0  0  0  0  0  0  0  0  0  0  0
   -3.0509    6.4441   -2.8373 C   0  0  0  0  0  0  0  0  0  0  0  0
   -3.9827    5.6433   -2.1543 C   0  0  0  0  0  0  0  0  0  0  0  0
   -1.8370    5.8186   -3.4761 C   0  0  0  0  0  0  0  0  0  0  0  0
   -1.3867    4.7474   -2.7202 F   0  0  0  0  0  0  0  0  0  0  0  0
   -2.1700    5.3689   -4.7422 F   0  0  0  0  0  0  0  0  0  0  0  0
   -0.8057    6.7391   -3.5806 F   0  0  0  0  0  0  0  0  0  0  0  0
 12 13  2  0  0  0
 12 24  1  0  0  0
 12  1  1  0  0  0
 13 14  1  0  0  0
 14 15  2  0  0  0
 15 16  1  0  0  0
 15 25  1  0  0  0
 16 17  1  0  0  0
 16 24  2  0  0  0
 17 18  1  0  0  0
 18 19  2  0  0  0
 18 22  1  0  0  0
 19 20  1  0  0  0
 20 21  2  0  0  0
 21 22  1  0  0  0
 22 23  1  0  0  0
 23 24  1  0  0  0
 23 28  1  0  0  0
 28 29  2  0  0  0
 28 33  1  0  0  0
 29 30  1  0  0  0
 30 31  2  0  0  0
 30 34  1  0  0  0
 31 32  1  0  0  0
 32 33  2  0  0  0
  2  3  2  0  0  0
  3  4  1  0  0  0
  4  5  2  0  0  0
  5  6  1  0  0  0
  6  7  2  0  0  0
  7  8  1  0  0  0
  8  9  2  0  0  0
  9 36  1  0  0  0
 36 37  2  0  0  0
 36 38  1  0  0  0
 38 39  1  0  0  0
 39 40  1  0  0  0
 40 41  1  0  0  0
 41 44  1  0  0  0
 44 45  2  0  0  0
 45 46  1  0  0  0
 46 47  2  0  0  0
 47 48  1  0  0  0
 48 50  1  0  0  0
 50 51  1  0  0  0
 50 52  1  0  0  0
 50 53  1  0  0  0
 48 49  2  0  0  0
 41 42  1  0  0  0
 42 43  1  0  0  0
  9 10  1  0  0  0
 10 11  1  0  0  0
  8  3  1  0  0  0
 43 38  1  0  0  0
 49 44  1  0  0  0
  1  2  1  0  0  0
  1 10  2  0  0  0
 17 26  1  0  0  0
 34 35  1  0  0  0
 25 27  1  0  0  0
M  END
> <minimizedAffinity>
-6.84803

> <minimizedRMSD>
2.04736

> <CNNaffinity>
-1.0000000000

> <CNNgradient>
20.4735298157

$$$$



 49 54  0  0  0  0  0  0  0  0999 V2000
   -7.6715    4.0239    5.8438 C   0  0  0  0  0  0  0  0  0  0  0  0
   -7.5780    2.6350    6.0286 C   0  0  0  0  0  0  0  0  0  0  0  0
   -7.8162    1.8314    4.5805 S   0  0  0  0  0  0  0  0  0  0  0  0
   -8.1035    3.2404    3.6946 C   0  0  0  0  0  0  0  0  0  0  0  0
   -8.3018    3.2762    2.4001 N   0  0  0  0  0  0  0  0  0  0  0  0
   -8.0126    4.3467    4.4964 N   0  0  0  0  0  0  0  0  0  0  0  0
   -8.4289    4.1563    1.9776 H   0  0  0  0  0  0  0  0  0  0  0  0
   -7.5833    4.9965    6.9090 C   0  0  0  0  0  0  0  0  0  0  0  0
   -6.3954    5.6371    6.9500 N   0  0  0  0  0  0  0  0  0  0  0  0
   -6.1712    6.5611    7.9217 N   0  0  0  0  0  0  0  0  0  0  0  0
   -7.1387    6.8128    8.8294 C   0  0  0  0  0  0  0  0  0  0  0  0
   -8.3685    6.1771    8.8244 C   0  0  0  0  0  0  0  0  0  0  0  0
   -9.3401    6.4449    9.8036 N   0  0  0  0  0  0  0  0  0  0  0  0
  -10.5059    5.7705    9.8388 C   0  0  0  0  0  0  0  0  0  0  0  0
  -11.5210    5.7918   10.6744 N   0  0  0  0  0  0  0  0  0  0  0  0
  -12.4112    4.8430   10.2146 N   0  0  0  0  0  0  0  0  0  0  0  0
  -11.9571    4.2495    9.1159 N   0  0  0  0  0  0  0  0  0  0  0  0
  -10.7821    4.8464    8.8670 N   0  0  0  0  0  0  0  0  0  0  0  0
   -9.9364    4.5025    7.7250 C   0  0  0  0  0  0  0  0  0  0  0  0
   -8.6058    5.2359    7.8141 C   0  0  0  0  0  0  0  0  0  0  0  0
   -6.8464    7.7436    9.7909 O   0  0  0  0  0  0  0  0  0  0  0  0
   -9.1651    7.1401   10.4784 H   0  0  0  0  0  0  0  0  0  0  0  0
   -6.0128    8.1715    9.7908 H   0  0  0  0  0  0  0  0  0  0  0  0
  -10.6910    4.8459    6.4780 C   0  0  0  0  0  0  0  0  0  0  0  0
  -10.9834    6.1777    6.1842 C   0  0  0  0  0  0  0  0  0  0  0  0
  -11.6859    6.4977    5.0220 C   0  0  0  0  0  0  0  0  0  0  0  0
  -12.0980    5.4859    4.1556 C   0  0  0  0  0  0  0  0  0  0  0  0
  -11.8065    4.1531    4.4494 C   0  0  0  0  0  0  0  0  0  0  0  0
  -11.1020    3.8341    5.6116 C   0  0  0  0  0  0  0  0  0  0  0  0
  -11.9712    7.7967    4.7351 O   0  0  0  0  0  0  0  0  0  0  0  0
  -11.6944    8.4768    5.3172 H   0  0  0  0  0  0  0  0  0  0  0  0
   -8.3455    2.1130    1.5574 C   0  0  0  0  0  0  0  0  0  0  0  0
   -7.1892    1.7221    0.8720 C   0  0  0  0  0  0  0  0  0  0  0  0
   -7.2195    0.6318    0.0021 C   0  0  0  0  0  0  0  0  0  0  0  0
   -8.4070   -0.0752   -0.1973 C   0  0  0  0  0  0  0  0  0  0  0  0
   -9.5804    0.3032    0.4775 C   0  0  0  0  0  0  0  0  0  0  0  0
   -9.5477    1.4209    1.3318 C   0  0  0  0  0  0  0  0  0  0  0  0
  -10.8762   -0.4183    0.2039 C   0  0  0  0  0  0  0  0  0  0  0  0
  -10.7319   -1.7765    0.4340 F   0  0  0  0  0  0  0  0  0  0  0  0
  -11.2368   -0.2202   -1.1158 F   0  0  0  0  0  0  0  0  0  0  0  0
  -11.8884    0.0543    1.0240 F   0  0  0  0  0  0  0  0  0  0  0  0
   -8.0756    5.7480    4.0332 C   0  0  0  0  0  0  0  0  0  0  0  0
   -6.7343    6.2120    3.4420 C   0  0  0  0  0  0  0  0  0  0  0  0
   -6.8388    7.5726    2.7337 C   0  0  0  0  0  0  0  0  0  0  0  0
   -5.6850    8.5182    3.0994 C   0  0  0  0  0  0  0  0  0  0  0  0
   -4.6261    7.8416    3.9835 C   0  0  0  0  0  0  0  0  0  0  0  0
   -4.4755    8.5751    5.3191 C   0  0  0  0  0  0  0  0  0  0  0  0
   -4.1018    7.6777    6.3281 O   0  0  0  0  0  0  0  0  0  0  0  0
   -4.7847    6.9954    6.4232 H   0  0  0  0  0  0  0  0  0  0  0  0
  8  9  2  0  0  0
  8 20  1  0  0  0
  8  1  1  0  0  0
  9 10  1  0  0  0
 10 11  2  0  0  0
 11 12  1  0  0  0
 11 21  1  0  0  0
 12 13  1  0  0  0
 12 20  2  0  0  0
 13 14  1  0  0  0
 14 15  2  0  0  0
 14 18  1  0  0  0
 15 16  1  0  0  0
 16 17  2  0  0  0
 17 18  1  0  0  0
 18 19  1  0  0  0
 19 20  1  0  0  0
 19 24  1  0  0  0
 24 25  2  0  0  0
 24 29  1  0  0  0
 25 26  1  0  0  0
 26 27  2  0  0  0
 26 30  1  0  0  0
 27 28  1  0  0  0
 28 29  2  0  0  0
  2  3  1  0  0  0
  3  4  1  0  0  0
  4  5  2  0  0  0
  5 32  1  0  0  0
 32 33  2  0  0  0
 33 34  1  0  0  0
 34 35  2  0  0  0
 35 36  1  0  0  0
 36 38  1  0  0  0
 38 39  1  0  0  0
 38 40  1  0  0  0
 38 41  1  0  0  0
 36 37  2  0  0  0
  4  6  1  0  0  0
  6 42  1  0  0  0
 42 43  1  0  0  0
 43 44  1  0  0  0
 44 45  1  0  0  0
 45 46  1  0  0  0
 46 47  1  0  0  0
 47 48  1  0  0  0
 37 32  1  0  0  0
  1  2  2  0  0  0
  1  6  1  0  0  0
 13 22  1  0  0  0
 30 31  1  0  0  0
 21 23  1  0  0  0
  5  7  1  0  0  0
 48 49  1  0  0  0
M  CHG 1   5   1
M  END
> <minimizedAffinity>
-5.87756

> <minimizedRMSD>
2.04910

> <CNNaffinity>
-1.0000000000

> <CNNgradient>
17.3397674561

$$$$



 37 42  0  0  0  0  0  0  0  0999 V2000
   -7.7674    5.2310    5.9610 C   0  0  0  0  0  0  0  0  0  0  0  0
   -6.6143    5.8849    6.2179 N   0  0  0  0  0  0  0  0  0  0  0  0
   -6.4621    6.5223    7.4090 N   0  0  0  0  0  0  0  0  0  0  0  0
   -7.4648    6.4814    8.3125 C   0  0  0  0  0  0  0  0  0  0  0  0
   -8.6610    5.8210    8.0899 C   0  0  0  0  0  0  0  0  0  0  0  0
   -9.6704    5.7763    9.0665 N   0  0  0  0  0  0  0  0  0  0  0  0
  -10.8019    5.0705    8.8748 C   0  0  0  0  0  0  0  0  0  0  0  0
  -11.8387    4.8253    9.6455 N   0  0  0  0  0  0  0  0  0  0  0  0
  -12.6683    3.9995    8.9146 N   0  0  0  0  0  0  0  0  0  0  0  0
  -12.1561    3.7419    7.7160 N   0  0  0  0  0  0  0  0  0  0  0  0
  -11.0060    4.4309    7.6816 N   0  0  0  0  0  0  0  0  0  0  0  0
  -10.1141    4.4410    6.5230 C   0  0  0  0  0  0  0  0  0  0  0  0
   -8.8243    5.1769    6.8566 C   0  0  0  0  0  0  0  0  0  0  0  0
   -7.2448    7.1308    9.4983 O   0  0  0  0  0  0  0  0  0  0  0  0
   -9.5482    6.2712    9.9087 H   0  0  0  0  0  0  0  0  0  0  0  0
   -6.4337    7.5765    9.6450 H   0  0  0  0  0  0  0  0  0  0  0  0
   -7.7788    4.5775    4.6721 C   0  0  0  0  0  0  0  0  0  0  0  0
   -8.0972    5.2854    3.4465 C   0  0  0  0  0  0  0  0  0  0  0  0
   -8.3953    6.7486    3.3583 C   0  0  0  0  0  0  0  0  0  0  0  0
   -7.9206    4.2798    2.1012 S   0  0  0  0  0  0  0  0  0  0  0  0
   -7.5238    2.9248    2.9983 C   0  0  0  0  0  0  0  0  0  0  0  0
   -7.2021    1.7085    2.5013 N   0  0  0  0  0  0  0  0  0  0  0  0
   -6.8775    0.7096    3.3651 C   0  0  0  0  0  0  0  0  0  0  0  0
   -6.9021    0.9293    4.7103 N   0  0  0  0  0  0  0  0  0  0  0  0
   -7.2327    2.1427    5.2403 C   0  0  0  0  0  0  0  0  0  0  0  0
   -7.3308    2.2645    6.6611 N   0  0  0  0  0  0  0  0  0  0  0  0
   -7.5272    3.2037    4.3562 C   0  0  0  0  0  0  0  0  0  0  0  0
   -7.1148    1.4959    7.2371 H   0  0  0  0  0  0  0  0  0  0  0  0
   -7.6145    3.1170    7.0637 H   0  0  0  0  0  0  0  0  0  0  0  0
  -10.8512    5.0757    5.3846 C   0  0  0  0  0  0  0  0  0  0  0  0
  -11.2480    6.4102    5.4682 C   0  0  0  0  0  0  0  0  0  0  0  0
  -11.9343    7.0018    4.4072 C   0  0  0  0  0  0  0  0  0  0  0  0
  -12.2257    6.2581    3.2643 C   0  0  0  0  0  0  0  0  0  0  0  0
  -11.8297    4.9225    3.1803 C   0  0  0  0  0  0  0  0  0  0  0  0
  -11.1416    4.3321    4.2417 C   0  0  0  0  0  0  0  0  0  0  0  0
  -12.3214    8.3036    4.4885 O   0  0  0  0  0  0  0  0  0  0  0  0
  -12.1256    8.8035    5.2565 H   0  0  0  0  0  0  0  0  0  0  0  0
  1  2  2  0  0  0
  1 13  1  0  0  0
  1 17  1  0  0  0
  2  3  1  0  0  0
  3  4  2  0  0  0
  4  5  1  0  0  0
  4 14  1  0  0  0
  5  6  1  0  0  0
  5 13  2  0  0  0
  6  7  1  0  0  0
  7  8  2  0  0  0
  7 11  1  0  0  0
  8  9  1  0  0  0
  9 10  2  0  0  0
 10 11  1  0  0  0
 11 12  1  0  0  0
 12 13  1  0  0  0
 12 30  1  0  0  0
 30 31  2  0  0  0
 30 35  1  0  0  0
 31 32  1  0  0  0
 32 33  2  0  0  0
 32 36  1  0  0  0
 33 34  1  0  0  0
 34 35  2  0  0  0
 18 19  1  0  0  0
 18 20  1  0  0  0
 20 21  1  0  0  0
 21 22  2  0  0  0
 22 23  1  0  0  0
 23 24  2  0  0  0
 24 25  1  0  0  0
 25 26  1  0  0  0
 25 27  2  0  0  0
 27 21  1  0  0  0
 17 18  2  0  0  0
 17 27  1  0  0  0
  6 15  1  0  0  0
 36 37  1  0  0  0
 14 16  1  0  0  0
 26 28  1  0  0  0
 26 29  1  0  0  0
M  END
> <minimizedAffinity>
-6.83455

> <minimizedRMSD>
1.28876

> <CNNaffinity>
-1.0000000000

> <CNNgradient>
17.3040218353

$$$$



 50 55  0  0  0  0  0  0  0  0999 V2000
   -7.6910    4.0747    5.5541 C   0  0  0  0  0  0  0  0  0  0  0  0
   -8.0542    4.3951    4.1833 C   0  0  0  0  0  0  0  0  0  0  0  0
   -8.0168    3.2056    3.4405 C   0  0  0  0  0  0  0  0  0  0  0  0
   -7.6851    2.2221    4.3538 C   0  0  0  0  0  0  0  0  0  0  0  0
   -7.5354    2.7300    5.5579 N   0  0  0  0  0  0  0  0  0  0  0  0
   -7.0871    1.7759    6.5429 C   0  0  0  0  0  0  0  0  0  0  0  0
   -6.9630    0.4605    5.7294 C   0  0  0  0  0  0  0  0  0  0  0  0
   -7.3252    0.7958    4.2569 C   0  0  0  0  0  0  0  0  0  0  0  0
   -7.5695    5.0101    6.6490 C   0  0  0  0  0  0  0  0  0  0  0  0
   -6.3808    5.6499    6.6750 N   0  0  0  0  0  0  0  0  0  0  0  0
   -6.1262    6.5401    7.6705 N   0  0  0  0  0  0  0  0  0  0  0  0
   -7.0650    6.7596    8.6160 C   0  0  0  0  0  0  0  0  0  0  0  0
   -8.2946    6.1236    8.6272 C   0  0  0  0  0  0  0  0  0  0  0  0
   -9.2352    6.3568    9.6449 N   0  0  0  0  0  0  0  0  0  0  0  0
  -10.3995    5.6807    9.6929 C   0  0  0  0  0  0  0  0  0  0  0  0
  -11.3881    5.6724   10.5599 N   0  0  0  0  0  0  0  0  0  0  0  0
  -12.2925    4.7393   10.0956 N   0  0  0  0  0  0  0  0  0  0  0  0
  -11.8729    4.1843    8.9636 N   0  0  0  0  0  0  0  0  0  0  0  0
  -10.7061    4.7904    8.6991 N   0  0  0  0  0  0  0  0  0  0  0  0
   -9.8964    4.4866    7.5201 C   0  0  0  0  0  0  0  0  0  0  0  0
   -8.5634    5.2175    7.5931 C   0  0  0  0  0  0  0  0  0  0  0  0
   -6.7427    7.6571    9.5994 O   0  0  0  0  0  0  0  0  0  0  0  0
   -9.0391    7.0285   10.3374 H   0  0  0  0  0  0  0  0  0  0  0  0
   -5.9094    8.0854    9.5881 H   0  0  0  0  0  0  0  0  0  0  0  0
  -10.6892    4.8720    6.3097 C   0  0  0  0  0  0  0  0  0  0  0  0
  -10.9739    6.2147    6.0610 C   0  0  0  0  0  0  0  0  0  0  0  0
  -11.7120    6.5739    4.9328 C   0  0  0  0  0  0  0  0  0  0  0  0
  -12.1675    5.5905    4.0555 C   0  0  0  0  0  0  0  0  0  0  0  0
  -11.8838    4.2469    4.3043 C   0  0  0  0  0  0  0  0  0  0  0  0
  -11.1436    3.8886    5.4324 C   0  0  0  0  0  0  0  0  0  0  0  0
  -11.9898    7.8835    4.6899 O   0  0  0  0  0  0  0  0  0  0  0  0
  -11.6838    8.5445    5.2794 H   0  0  0  0  0  0  0  0  0  0  0  0
   -8.2176    5.7857    3.6252 C   0  0  0  0  0  0  0  0  0  0  0  0
   -7.0582    6.1843    2.8965 O   0  0  0  0  0  0  0  0  0  0  0  0
   -5.9296    6.7637    3.4902 C   0  0  0  0  0  0  0  0  0  0  0  0
   -5.9013    7.9985    3.7412 O   0  0  0  0  0  0  0  0  0  0  0  0
   -4.7946    5.9550    3.8163 N   0  0  0  0  0  0  0  0  0  0  0  0
   -4.0830    6.3357    4.3802 H   0  0  0  0  0  0  0  0  0  0  0  0
   -4.6604    4.5756    3.3350 C   0  0  0  0  0  0  0  0  0  0  0  0
   -4.1628    3.6683    4.4648 C   0  0  0  0  0  0  0  0  0  0  0  0
   -3.6965    4.5230    2.1432 C   0  0  0  0  0  0  0  0  0  0  0  0
   -8.0140    3.0805    1.9445 C   0  0  0  0  0  0  0  0  0  0  0  0
   -8.9882    2.1394    1.5004 O   0  0  0  0  0  0  0  0  0  0  0  0
  -10.3662    2.3693    1.5518 C   0  0  0  0  0  0  0  0  0  0  0  0
  -10.8613    3.4103    1.0362 O   0  0  0  0  0  0  0  0  0  0  0  0
  -11.2320    1.4243    2.1923 N   0  0  0  0  0  0  0  0  0  0  0  0
  -12.2058    1.5612    2.1452 H   0  0  0  0  0  0  0  0  0  0  0  0
  -10.7124    0.2594    2.9157 C   0  0  0  0  0  0  0  0  0  0  0  0
  -11.2824   -1.0375    2.3247 C   0  0  0  0  0  0  0  0  0  0  0  0
  -11.0639    0.3613    4.4053 C   0  0  0  0  0  0  0  0  0  0  0  0
  9 10  2  0  0  0
  9 21  1  0  0  0
  9  1  1  0  0  0
 10 11  1  0  0  0
 11 12  2  0  0  0
 12 13  1  0  0  0
 12 22  1  0  0  0
 13 14  1  0  0  0
 13 21  2  0  0  0
 14 15  1  0  0  0
 15 16  2  0  0  0
 15 19  1  0  0  0
 16 17  1  0  0  0
 17 18  2  0  0  0
 18 19  1  0  0  0
 19 20  1  0  0  0
 20 21  1  0  0  0
 20 25  1  0  0  0
 25 26  2  0  0  0
 25 30  1  0  0  0
 26 27  1  0  0  0
 27 28  2  0  0  0
 27 31  1  0  0  0
 28 29  1  0  0  0
 29 30  2  0  0  0
  2 33  1  0  0  0
 33 34  1  0  0  0
 34 35  1  0  0  0
 35 36  2  0  0  0
 35 37  1  0  0  0
 37 39  1  0  0  0
 39 40  1  0  0  0
 39 41  1  0  0  0
  2  3  1  0  0  0
  3 42  1  0  0  0
 42 43  1  0  0  0
 43 44  1  0  0  0
 44 45  2  0  0  0
 44 46  1  0  0  0
 46 48  1  0  0  0
 48 49  1  0  0  0
 48 50  1  0  0  0
  3  4  2  0  0  0
  4  5  1  0  0  0
  5  6  1  0  0  0
  6  7  1  0  0  0
  7  8  1  0  0  0
  8  4  1  0  0  0
  1  2  2  0  0  0
  1  5  1  0  0  0
 14 23  1  0  0  0
 31 32  1  0  0  0
 22 24  1  0  0  0
 37 38  1  0  0  0
 46 47  1  0  0  0
M  END
> <minimizedAffinity>
-6.00422

> <minimizedRMSD>
2.47520

> <CNNaffinity>
-1.0000000000

> <CNNgradient>
13.6557540894

$$$$



 52 61  0  0  0  0  0  0  0  0999 V2000
   -7.5782    4.4115    5.1979 C   0  0  0  0  0  0  0  0  0  0  0  0
   -8.1303    4.9135    3.9456 C   0  0  0  0  0  0  0  0  0  0  0  0
   -8.4552    4.0358    2.8859 C   0  0  0  0  0  0  0  0  0  0  0  0
   -7.9928    2.7321    2.9080 N   0  0  0  0  0  0  0  0  0  0  0  0
   -7.3446    2.2449    4.0285 C   0  0  0  0  0  0  0  0  0  0  0  0
   -7.3182    3.0133    5.2147 C   0  0  0  0  0  0  0  0  0  0  0  0
   -6.8865    2.3605    6.5196 C   0  0  0  0  0  0  0  0  0  0  0  0
   -7.2443    0.8688    6.5262 C   0  0  0  0  0  0  0  0  0  0  0  0
   -6.6508    0.2095    5.3128 C   0  0  0  0  0  0  0  0  0  0  0  0
   -6.0022   -1.0304    5.4165 C   0  0  0  0  0  0  0  0  0  0  0  0
   -5.3479   -1.5730    4.3096 C   0  0  0  0  0  0  0  0  0  0  0  0
   -5.3018   -0.8630    3.1094 C   0  0  0  0  0  0  0  0  0  0  0  0
   -5.9389    0.3759    3.0010 C   0  0  0  0  0  0  0  0  0  0  0  0
   -6.6805    0.8970    4.0806 C   0  0  0  0  0  0  0  0  0  0  0  0
   -9.2548    4.6117    1.7490 C   0  0  0  0  0  0  0  0  0  0  0  0
  -10.2522    3.8803    1.0725 C   0  0  0  0  0  0  0  0  0  0  0  0
  -10.9689    4.4598    0.0221 C   0  0  0  0  0  0  0  0  0  0  0  0
  -10.7389    5.7886   -0.3349 C   0  0  0  0  0  0  0  0  0  0  0  0
   -9.8244    6.5563    0.3874 C   0  0  0  0  0  0  0  0  0  0  0  0
   -9.1116    5.9843    1.4522 C   0  0  0  0  0  0  0  0  0  0  0  0
   -8.2189    6.8301    2.3158 C   0  0  0  0  0  0  0  0  0  0  0  0
   -8.3714    6.4057    3.7821 C   0  0  0  0  0  0  0  0  0  0  0  0
   -7.4793    5.2670    6.3585 C   0  0  0  0  0  0  0  0  0  0  0  0
   -6.3311    5.9761    6.4027 N   0  0  0  0  0  0  0  0  0  0  0  0
   -6.0998    6.8024    7.4572 N   0  0  0  0  0  0  0  0  0  0  0  0
   -7.0202    6.8903    8.4414 C   0  0  0  0  0  0  0  0  0  0  0  0
   -8.2082    6.1795    8.4358 C   0  0  0  0  0  0  0  0  0  0  0  0
   -9.1289    6.2754    9.4930 N   0  0  0  0  0  0  0  0  0  0  0  0
  -10.2482    5.5261    9.5192 C   0  0  0  0  0  0  0  0  0  0  0  0
  -11.2070    5.3902   10.4088 N   0  0  0  0  0  0  0  0  0  0  0  0
  -12.0674    4.4401    9.8975 N   0  0  0  0  0  0  0  0  0  0  0  0
  -11.6506    4.0000    8.7152 N   0  0  0  0  0  0  0  0  0  0  0  0
  -10.5313    4.6963    8.4677 N   0  0  0  0  0  0  0  0  0  0  0  0
   -9.7419    4.5341    7.2477 C   0  0  0  0  0  0  0  0  0  0  0  0
   -8.4539    5.3395    7.3419 C   0  0  0  0  0  0  0  0  0  0  0  0
   -6.7222    7.7289    9.4827 O   0  0  0  0  0  0  0  0  0  0  0  0
   -8.9523    6.9036   10.2302 H   0  0  0  0  0  0  0  0  0  0  0  0
   -5.9170    8.2082    9.4826 H   0  0  0  0  0  0  0  0  0  0  0  0
  -10.5939    4.9599    6.0923 C   0  0  0  0  0  0  0  0  0  0  0  0
  -10.9218    6.3055    5.9260 C   0  0  0  0  0  0  0  0  0  0  0  0
  -11.7152    6.7023    4.8491 C   0  0  0  0  0  0  0  0  0  0  0  0
  -12.1825    5.7534    3.9406 C   0  0  0  0  0  0  0  0  0  0  0  0
  -11.8556    4.4069    4.1068 C   0  0  0  0  0  0  0  0  0  0  0  0
  -11.0603    4.0111    5.1837 C   0  0  0  0  0  0  0  0  0  0  0  0
  -12.0350    8.0147    4.6867 O   0  0  0  0  0  0  0  0  0  0  0  0
  -11.7211    8.6525    5.2971 H   0  0  0  0  0  0  0  0  0  0  0  0
   -8.1744    1.8861    1.7539 C   0  0  0  0  0  0  0  0  0  0  0  0
   -9.1689    0.8937    1.7429 C   0  0  0  0  0  0  0  0  0  0  0  0
   -9.3258    0.0942    0.6097 C   0  0  0  0  0  0  0  0  0  0  0  0
   -8.5007    0.2908   -0.4987 C   0  0  0  0  0  0  0  0  0  0  0  0
   -7.5259    1.2900   -0.4571 C   0  0  0  0  0  0  0  0  0  0  0  0
   -7.3851    2.0584    0.6556 N   0  0  0  0  0  0  0  0  0  0  0  0
 23 24  2  0  0  0
 23 35  1  0  0  0
 23  1  1  0  0  0
 24 25  1  0  0  0
 25 26  2  0  0  0
 26 27  1  0  0  0
 26 36  1  0  0  0
 27 28  1  0  0  0
 27 35  2  0  0  0
 28 29  1  0  0  0
 29 30  2  0  0  0
 29 33  1  0  0  0
 30 31  1  0  0  0
 31 32  2  0  0  0
 32 33  1  0  0  0
 33 34  1  0  0  0
 34 35  1  0  0  0
 34 39  1  0  0  0
 39 40  2  0  0  0
 39 44  1  0  0  0
 40 41  1  0  0  0
 41 42  2  0  0  0
 41 45  1  0  0  0
 42 43  1  0  0  0
 43 44  2  0  0  0
  2  3  2  0  0  0
  3  4  1  0  0  0
  4 47  1  0  0  0
 47 48  2  0  0  0
 48 49  1  0  0  0
 49 50  2  0  0  0
 50 51  1  0  0  0
 51 52  2  0  0  0
  4  5  2  0  0  0
  5  6  1  0  0  0
  6  7  1  0  0  0
  7  8  1  0  0  0
  8  9  1  0  0  0
  9 10  2  0  0  0
 10 11  1  0  0  0
 11 12  2  0  0  0
 12 13  1  0  0  0
 13 14  2  0  0  0
  3 15  1  0  0  0
 15 16  2  0  0  0
 16 17  1  0  0  0
 17 18  2  0  0  0
 18 19  1  0  0  0
 19 20  2  0  0  0
 20 21  1  0  0  0
 21 22  1  0  0  0
 14  9  1  0  0  0
 20 15  1  0  0  0
 22  2  1  0  0  0
 52 47  1  0  0  0
 14  5  1  0  0  0
  1  2  1  0  0  0
  1  6  2  0  0  0
 28 37  1  0  0  0
 45 46  1  0  0  0
 36 38  1  0  0  0
M  CHG 1   4   1
M  END
> <minimizedAffinity>
-7.34665

> <minimizedRMSD>
1.22273

> <CNNaffinity>
-1.0000000000

> <CNNgradient>
34.7181701660

$$$$



 37 41  0  0  0  0  0  0  0  0999 V2000
   -7.6504    5.2265    5.9347 C   0  0  0  0  0  0  0  0  0  0  0  0
   -6.4797    5.8987    5.9645 N   0  0  0  0  0  0  0  0  0  0  0  0
   -6.1820    6.6684    7.0448 N   0  0  0  0  0  0  0  0  0  0  0  0
   -7.0603    6.7381    8.0681 C   0  0  0  0  0  0  0  0  0  0  0  0
   -8.2693    6.0636    8.0783 C   0  0  0  0  0  0  0  0  0  0  0  0
   -9.1449    6.1380    9.1748 N   0  0  0  0  0  0  0  0  0  0  0  0
  -10.2853    5.4216    9.2123 C   0  0  0  0  0  0  0  0  0  0  0  0
  -11.2127    5.2732   10.1327 N   0  0  0  0  0  0  0  0  0  0  0  0
  -12.1216    4.3735    9.6143 N   0  0  0  0  0  0  0  0  0  0  0  0
  -11.7648    3.9762    8.3976 N   0  0  0  0  0  0  0  0  0  0  0  0
  -10.6348    4.6497    8.1368 N   0  0  0  0  0  0  0  0  0  0  0  0
   -9.8987    4.5206    6.8801 C   0  0  0  0  0  0  0  0  0  0  0  0
   -8.5834    5.2824    6.9586 C   0  0  0  0  0  0  0  0  0  0  0  0
   -6.6961    7.5188    9.1331 O   0  0  0  0  0  0  0  0  0  0  0  0
   -8.9203    6.7261    9.9317 H   0  0  0  0  0  0  0  0  0  0  0  0
   -5.8770    7.9736    9.1221 H   0  0  0  0  0  0  0  0  0  0  0  0
   -7.8209    4.4287    4.7418 C   0  0  0  0  0  0  0  0  0  0  0  0
   -8.3429    5.0202    3.5049 C   0  0  0  0  0  0  0  0  0  0  0  0
   -8.5540    6.5184    3.4375 C   0  0  0  0  0  0  0  0  0  0  0  0
   -8.6508    4.1999    2.3947 C   0  0  0  0  0  0  0  0  0  0  0  0
   -9.1906    4.7604    1.1103 C   0  0  0  0  0  0  0  0  0  0  0  0
   -8.4388    2.8605    2.4656 N   0  0  0  0  0  0  0  0  0  0  0  0
   -7.9632    2.2444    3.5765 C   0  0  0  0  0  0  0  0  0  0  0  0
   -7.7740    0.8248    3.5474 N   0  0  0  0  0  0  0  0  0  0  0  0
   -7.6825    3.0043    4.7267 C   0  0  0  0  0  0  0  0  0  0  0  0
   -7.9785    0.3176    2.7288 H   0  0  0  0  0  0  0  0  0  0  0  0
   -7.4394    0.3564    4.3461 H   0  0  0  0  0  0  0  0  0  0  0  0
   -7.2216    2.3532    5.9350 C   0  0  0  0  0  0  0  0  0  0  0  0
   -6.8532    1.8346    6.9018 N   0  0  0  0  0  0  0  0  0  0  0  0
  -10.7811    5.0241    5.7801 C   0  0  0  0  0  0  0  0  0  0  0  0
  -11.1104    6.3779    5.7145 C   0  0  0  0  0  0  0  0  0  0  0  0
  -11.9321    6.8471    4.6891 C   0  0  0  0  0  0  0  0  0  0  0  0
  -12.4262    5.9622    3.7316 C   0  0  0  0  0  0  0  0  0  0  0  0
  -12.0979    4.6073    3.7972 C   0  0  0  0  0  0  0  0  0  0  0  0
  -11.2742    4.1392    4.8224 C   0  0  0  0  0  0  0  0  0  0  0  0
  -12.2533    8.1677    4.6248 O   0  0  0  0  0  0  0  0  0  0  0  0
  -11.9214    8.7625    5.2682 H   0  0  0  0  0  0  0  0  0  0  0  0
  1  2  2  0  0  0
  1 13  1  0  0  0
  1 17  1  0  0  0
  2  3  1  0  0  0
  3  4  2  0  0  0
  4  5  1  0  0  0
  4 14  1  0  0  0
  5  6  1  0  0  0
  5 13  2  0  0  0
  6  7  1  0  0  0
  7  8  2  0  0  0
  7 11  1  0  0  0
  8  9  1  0  0  0
  9 10  2  0  0  0
 10 11  1  0  0  0
 11 12  1  0  0  0
 12 13  1  0  0  0
 12 30  1  0  0  0
 30 31  2  0  0  0
 30 35  1  0  0  0
 31 32  1  0  0  0
 32 33  2  0  0  0
 32 36  1  0  0  0
 33 34  1  0  0  0
 34 35  2  0  0  0
 18 19  1  0  0  0
 18 20  2  0  0  0
 20 21  1  0  0  0
 20 22  1  0  0  0
 22 23  2  0  0  0
 23 24  1  0  0  0
 23 25  1  0  0  0
 25 28  1  0  0  0
 28 29  3  0  0  0
 17 18  1  0  0  0
 17 25  2  0  0  0
  6 15  1  0  0  0
 36 37  1  0  0  0
 14 16  1  0  0  0
 24 26  1  0  0  0
 24 27  1  0  0  0
M  END
> <minimizedAffinity>
-6.50226

> <minimizedRMSD>
1.04739

> <CNNaffinity>
-1.0000000000

> <CNNgradient>
22.8373565674

$$$$



 35 39  0  0  0  0  0  0  0  0999 V2000
   -7.7444    5.0120    6.9656 C   0  0  0  0  0  0  0  0  0  0  0  0
   -6.5687    5.6540    7.1353 N   0  0  0  0  0  0  0  0  0  0  0  0
   -6.4180    6.4980    8.1904 N   0  0  0  0  0  0  0  0  0  0  0  0
   -7.4450    6.6703    9.0500 C   0  0  0  0  0  0  0  0  0  0  0  0
   -8.6649    6.0303    8.9136 C   0  0  0  0  0  0  0  0  0  0  0  0
   -9.7008    6.2129    9.8454 N   0  0  0  0  0  0  0  0  0  0  0  0
  -10.8590    5.5314    9.7501 C   0  0  0  0  0  0  0  0  0  0  0  0
  -11.9263    5.4797   10.5164 N   0  0  0  0  0  0  0  0  0  0  0  0
  -12.7746    4.5660    9.9249 N   0  0  0  0  0  0  0  0  0  0  0  0
  -12.2438    4.0654    8.8144 N   0  0  0  0  0  0  0  0  0  0  0  0
  -11.0617    4.6870    8.6916 N   0  0  0  0  0  0  0  0  0  0  0  0
  -10.1400    4.4409    7.5835 C   0  0  0  0  0  0  0  0  0  0  0  0
   -8.8260    5.1721    7.8180 C   0  0  0  0  0  0  0  0  0  0  0  0
   -7.2258    7.5223   10.1000 O   0  0  0  0  0  0  0  0  0  0  0  0
   -9.5775    6.8525   10.5837 H   0  0  0  0  0  0  0  0  0  0  0  0
   -6.3986    7.9535   10.1886 H   0  0  0  0  0  0  0  0  0  0  0  0
  -10.8158    4.8792    6.3213 C   0  0  0  0  0  0  0  0  0  0  0  0
  -11.0964    6.2296    6.1131 C   0  0  0  0  0  0  0  0  0  0  0  0
  -11.7255    6.6382    4.9367 C   0  0  0  0  0  0  0  0  0  0  0  0
  -12.0761    5.6962    3.9703 C   0  0  0  0  0  0  0  0  0  0  0  0
  -11.7965    4.3448    4.1783 C   0  0  0  0  0  0  0  0  0  0  0  0
  -11.1654    3.9373    5.3549 C   0  0  0  0  0  0  0  0  0  0  0  0
  -11.9992    7.9554    4.7334 O   0  0  0  0  0  0  0  0  0  0  0  0
  -11.7637    8.5885    5.3827 H   0  0  0  0  0  0  0  0  0  0  0  0
   -7.7528    4.1279    5.8225 C   0  0  0  0  0  0  0  0  0  0  0  0
   -7.6579    2.7211    5.9291 C   0  0  0  0  0  0  0  0  0  0  0  0
   -7.6989    1.8636    4.8155 C   0  0  0  0  0  0  0  0  0  0  0  0
   -7.9201    2.4112    3.5403 C   0  0  0  0  0  0  0  0  0  0  0  0
   -8.0460    3.7925    3.3763 C   0  0  0  0  0  0  0  0  0  0  0  0
   -7.9769    4.6426    4.4822 C   0  0  0  0  0  0  0  0  0  0  0  0
   -8.0712    5.9839    4.2955 F   0  0  0  0  0  0  0  0  0  0  0  0
   -7.6055    0.3698    5.0007 C   0  0  0  0  0  0  0  0  0  0  0  0
   -6.7986   -0.1957    4.0286 F   0  0  0  0  0  0  0  0  0  0  0  0
   -7.0679    0.0650    6.2394 F   0  0  0  0  0  0  0  0  0  0  0  0
   -8.8709   -0.1796    4.9112 F   0  0  0  0  0  0  0  0  0  0  0  0
  1  2  2  0  0  0
  1 13  1  0  0  0
  1 25  1  0  0  0
  2  3  1  0  0  0
  3  4  2  0  0  0
  4  5  1  0  0  0
  4 14  1  0  0  0
  5  6  1  0  0  0
  5 13  2  0  0  0
  6  7  1  0  0  0
  7  8  2  0  0  0
  7 11  1  0  0  0
  8  9  1  0  0  0
  9 10  2  0  0  0
 10 11  1  0  0  0
 11 12  1  0  0  0
 12 13  1  0  0  0
 12 17  1  0  0  0
 17 18  2  0  0  0
 17 22  1  0  0  0
 18 19  1  0  0  0
 19 20  2  0  0  0
 19 23  1  0  0  0
 20 21  1  0  0  0
 21 22  2  0  0  0
 26 27  2  0  0  0
 27 32  1  0  0  0
 32 33  1  0  0  0
 32 34  1  0  0  0
 32 35  1  0  0  0
 27 28  1  0  0  0
 28 29  2  0  0  0
 29 30  1  0  0  0
 30 31  1  0  0  0
 25 26  1  0  0  0
 25 30  2  0  0  0
  6 15  1  0  0  0
 23 24  1  0  0  0
 14 16  1  0  0  0
M  END
> <minimizedAffinity>
-7.79653

> <minimizedRMSD>
0.87393

> <CNNaffinity>
-1.0000000000

> <CNNgradient>
17.6091728210

$$$$



 47 53  0  0  0  0  0  0  0  0999 V2000
   -7.6119    5.0489    6.7822 C   0  0  0  0  0  0  0  0  0  0  0  0
   -6.4330    5.7025    6.8590 N   0  0  0  0  0  0  0  0  0  0  0  0
   -6.2248    6.5816    7.8750 N   0  0  0  0  0  0  0  0  0  0  0  0
   -7.1989    6.7763    8.7896 C   0  0  0  0  0  0  0  0  0  0  0  0
   -8.4201    6.1254    8.7487 C   0  0  0  0  0  0  0  0  0  0  0  0
   -9.3987    6.3328    9.7355 N   0  0  0  0  0  0  0  0  0  0  0  0
  -10.5554    5.6421    9.7331 C   0  0  0  0  0  0  0  0  0  0  0  0
  -11.5738    5.6096   10.5644 N   0  0  0  0  0  0  0  0  0  0  0  0
  -12.4495    4.6723   10.0556 N   0  0  0  0  0  0  0  0  0  0  0  0
  -11.9834    4.1385    8.9317 N   0  0  0  0  0  0  0  0  0  0  0  0
  -10.8157    4.7623    8.7169 N   0  0  0  0  0  0  0  0  0  0  0  0
   -9.9612    4.4850    7.5632 C   0  0  0  0  0  0  0  0  0  0  0  0
   -8.6409    5.2308    7.6933 C   0  0  0  0  0  0  0  0  0  0  0  0
   -6.9227    7.6636    9.7960 O   0  0  0  0  0  0  0  0  0  0  0  0
   -9.2356    6.9969   10.4437 H   0  0  0  0  0  0  0  0  0  0  0  0
   -6.0950    8.1020    9.8200 H   0  0  0  0  0  0  0  0  0  0  0  0
   -7.6831    4.1276    5.6710 C   0  0  0  0  0  0  0  0  0  0  0  0
   -7.6274    2.7782    5.8774 N   0  0  0  0  0  0  0  0  0  0  0  0
   -7.7640    1.8337    4.9160 C   0  0  0  0  0  0  0  0  0  0  0  0
   -7.6399    0.4817    5.2575 C   0  0  0  0  0  0  0  0  0  0  0  0
   -7.7694   -0.5043    4.2786 C   0  0  0  0  0  0  0  0  0  0  0  0
   -8.0157   -0.1445    2.9529 C   0  0  0  0  0  0  0  0  0  0  0  0
   -8.1409    1.2024    2.6003 C   0  0  0  0  0  0  0  0  0  0  0  0
   -8.0279    2.2129    3.5810 C   0  0  0  0  0  0  0  0  0  0  0  0
   -8.1427    3.5902    3.2738 C   0  0  0  0  0  0  0  0  0  0  0  0
   -7.9891    4.5551    4.3030 C   0  0  0  0  0  0  0  0  0  0  0  0
   -8.0487    6.0319    3.9650 C   0  0  0  0  0  0  0  0  0  0  0  0
   -8.4284    4.0285    1.8889 C   0  0  0  0  0  0  0  0  0  0  0  0
   -7.4701    4.2778    1.1097 O   0  0  0  0  0  0  0  0  0  0  0  0
   -9.7900    4.1666    1.4471 N   0  0  0  0  0  0  0  0  0  0  0  0
  -10.5051    3.9242    2.0788 H   0  0  0  0  0  0  0  0  0  0  0  0
  -10.1847    4.6458    0.1148 C   0  0  0  0  0  0  0  0  0  0  0  0
   -9.6619    3.6817   -0.9824 C   0  0  0  0  0  0  0  0  0  0  0  0
  -10.6355    3.4801   -2.1699 C   0  0  0  0  0  0  0  0  0  0  0  0
  -10.3413    4.3862   -3.3794 C   0  0  0  0  0  0  0  0  0  0  0  0
  -11.1654    5.6883   -3.4301 C   0  0  0  0  0  0  0  0  0  0  0  0
  -11.2276    6.5064   -2.1286 C   0  0  0  0  0  0  0  0  0  0  0  0
   -9.8534    6.7235   -1.4616 C   0  0  0  0  0  0  0  0  0  0  0  0
   -9.7392    6.1227   -0.0497 C   0  0  0  0  0  0  0  0  0  0  0  0
  -10.7157    4.8779    6.3310 C   0  0  0  0  0  0  0  0  0  0  0  0
  -11.0113    6.2201    6.0924 C   0  0  0  0  0  0  0  0  0  0  0  0
  -11.7137    6.5863    4.9439 C   0  0  0  0  0  0  0  0  0  0  0  0
  -12.1227    5.6103    4.0360 C   0  0  0  0  0  0  0  0  0  0  0  0
  -11.8282    4.2671    4.2745 C   0  0  0  0  0  0  0  0  0  0  0  0
  -11.1237    3.9019    5.4230 C   0  0  0  0  0  0  0  0  0  0  0  0
  -12.0020    7.8954    4.7109 O   0  0  0  0  0  0  0  0  0  0  0  0
  -11.7273    8.5514    5.3210 H   0  0  0  0  0  0  0  0  0  0  0  0
  1  2  2  0  0  0
  1 13  1  0  0  0
  1 17  1  0  0  0
  2  3  1  0  0  0
  3  4  2  0  0  0
  4  5  1  0  0  0
  4 14  1  0  0  0
  5  6  1  0  0  0
  5 13  2  0  0  0
  6  7  1  0  0  0
  7  8  2  0  0  0
  7 11  1  0  0  0
  8  9  1  0  0  0
  9 10  2  0  0  0
 10 11  1  0  0  0
 11 12  1  0  0  0
 12 13  1  0  0  0
 12 40  1  0  0  0
 40 41  2  0  0  0
 40 45  1  0  0  0
 41 42  1  0  0  0
 42 43  2  0  0  0
 42 46  1  0  0  0
 43 44  1  0  0  0
 44 45  2  0  0  0
 18 19  2  0  0  0
 19 20  1  0  0  0
 20 21  2  0  0  0
 21 22  1  0  0  0
 22 23  2  0  0  0
 23 24  1  0  0  0
 24 25  2  0  0  0
 25 28  1  0  0  0
 28 29  2  0  0  0
 28 30  1  0  0  0
 30 32  1  0  0  0
 32 33  1  0  0  0
 33 34  1  0  0  0
 34 35  1  0  0  0
 35 36  1  0  0  0
 36 37  1  0  0  0
 37 38  1  0  0  0
 38 39  1  0  0  0
 25 26  1  0  0  0
 26 27  1  0  0  0
 24 19  1  0  0  0
 39 32  1  0  0  0
 17 18  1  0  0  0
 17 26  2  0  0  0
  6 15  1  0  0  0
 46 47  1  0  0  0
 14 16  1  0  0  0
 30 31  1  0  0  0
M  END
> <minimizedAffinity>
-7.34537

> <minimizedRMSD>
1.92193

> <CNNaffinity>
-1.0000000000

> <CNNgradient>
17.9634876251

$$$$



 43 49  0  0  0  0  0  0  0  0999 V2000
   -7.7314    5.3457    6.0335 C   0  0  0  0  0  0  0  0  0  0  0  0
   -6.5849    6.0372    6.2075 N   0  0  0  0  0  0  0  0  0  0  0  0
   -6.4105    6.7606    7.3453 N   0  0  0  0  0  0  0  0  0  0  0  0
   -7.3849    6.7658    8.2801 C   0  0  0  0  0  0  0  0  0  0  0  0
   -8.5735    6.0695    8.1420 C   0  0  0  0  0  0  0  0  0  0  0  0
   -9.5524    6.0760    9.1502 N   0  0  0  0  0  0  0  0  0  0  0  0
  -10.6743    5.3377    9.0440 C   0  0  0  0  0  0  0  0  0  0  0  0
  -11.6826    5.1291    9.8620 N   0  0  0  0  0  0  0  0  0  0  0  0
  -12.5163    4.2382    9.2174 N   0  0  0  0  0  0  0  0  0  0  0  0
  -12.0348    3.9052    8.0247 N   0  0  0  0  0  0  0  0  0  0  0  0
  -10.9005    4.6110    7.9060 N   0  0  0  0  0  0  0  0  0  0  0  0
  -10.0438    4.5548    6.7225 C   0  0  0  0  0  0  0  0  0  0  0  0
   -8.7600    5.3361    6.9630 C   0  0  0  0  0  0  0  0  0  0  0  0
   -7.1432    7.5021    9.4097 O   0  0  0  0  0  0  0  0  0  0  0  0
   -9.4154    6.6319    9.9511 H   0  0  0  0  0  0  0  0  0  0  0  0
   -6.3375    7.9720    9.4991 H   0  0  0  0  0  0  0  0  0  0  0  0
   -7.7676    4.6018    4.7950 C   0  0  0  0  0  0  0  0  0  0  0  0
   -8.1212    5.2004    3.5190 C   0  0  0  0  0  0  0  0  0  0  0  0
   -8.4079    6.6528    3.3076 C   0  0  0  0  0  0  0  0  0  0  0  0
   -8.1467    4.0411    2.2877 S   0  0  0  0  0  0  0  0  0  0  0  0
   -7.7697    2.7587    3.3006 C   0  0  0  0  0  0  0  0  0  0  0  0
   -7.6262    1.4591    2.9440 N   0  0  0  0  0  0  0  0  0  0  0  0
   -7.3367    0.5324    3.9094 C   0  0  0  0  0  0  0  0  0  0  0  0
   -7.1951    0.9347    5.2097 N   0  0  0  0  0  0  0  0  0  0  0  0
   -7.3376    2.2362    5.5846 C   0  0  0  0  0  0  0  0  0  0  0  0
   -7.2219    2.5501    6.7981 O   0  0  0  0  0  0  0  0  0  0  0  0
   -7.6242    3.1937    4.6040 C   0  0  0  0  0  0  0  0  0  0  0  0
   -6.9834    0.2616    5.8963 H   0  0  0  0  0  0  0  0  0  0  0  0
   -7.1665   -0.9027    3.5715 C   0  0  0  0  0  0  0  0  0  0  0  0
   -6.3280   -1.7146    4.3579 C   0  0  0  0  0  0  0  0  0  0  0  0
   -6.1629   -3.0693    4.0542 C   0  0  0  0  0  0  0  0  0  0  0  0
   -6.8378   -3.6321    2.9678 C   0  0  0  0  0  0  0  0  0  0  0  0
   -6.6309   -5.3324    2.5899 Cl  0  0  0  0  0  0  0  0  0  0  0  0
   -7.6831   -2.8392    2.1868 C   0  0  0  0  0  0  0  0  0  0  0  0
   -7.8505   -1.4835    2.4861 C   0  0  0  0  0  0  0  0  0  0  0  0
  -10.8271    5.0931    5.5654 C   0  0  0  0  0  0  0  0  0  0  0  0
  -11.2019    6.4364    5.5415 C   0  0  0  0  0  0  0  0  0  0  0  0
  -11.9312    6.9381    4.4631 C   0  0  0  0  0  0  0  0  0  0  0  0
  -12.2879    6.0960    3.4106 C   0  0  0  0  0  0  0  0  0  0  0  0
  -11.9141    4.7516    3.4343 C   0  0  0  0  0  0  0  0  0  0  0  0
  -11.1828    4.2510    4.5129 C   0  0  0  0  0  0  0  0  0  0  0  0
  -12.2968    8.2485    4.4395 O   0  0  0  0  0  0  0  0  0  0  0  0
  -12.0572    8.8145    5.1467 H   0  0  0  0  0  0  0  0  0  0  0  0
  1  2  2  0  0  0
  1 13  1  0  0  0
  1 17  1  0  0  0
  2  3  1  0  0  0
  3  4  2  0  0  0
  4  5  1  0  0  0
  4 14  1  0  0  0
  5  6  1  0  0  0
  5 13  2  0  0  0
  6  7  1  0  0  0
  7  8  2  0  0  0
  7 11  1  0  0  0
  8  9  1  0  0  0
  9 10  2  0  0  0
 10 11  1  0  0  0
 11 12  1  0  0  0
 12 13  1  0  0  0
 12 36  1  0  0  0
 36 37  2  0  0  0
 36 41  1  0  0  0
 37 38  1  0  0  0
 38 39  2  0  0  0
 38 42  1  0  0  0
 39 40  1  0  0  0
 40 41  2  0  0  0
 18 19  1  0  0  0
 18 20  1  0  0  0
 20 21  1  0  0  0
 21 22  1  0  0  0
 22 23  2  0  0  0
 23 29  1  0  0  0
 29 30  2  0  0  0
 30 31  1  0  0  0
 31 32  2  0  0  0
 32 33  1  0  0  0
 32 34  1  0  0  0
 34 35  2  0  0  0
 23 24  1  0  0  0
 24 25  1  0  0  0
 25 26  2  0  0  0
 25 27  1  0  0  0
 27 21  2  0  0  0
 35 29  1  0  0  0
 17 18  2  0  0  0
 17 27  1  0  0  0
  6 15  1  0  0  0
 42 43  1  0  0  0
 14 16  1  0  0  0
 24 28  1  0  0  0
M  END
> <minimizedAffinity>
-6.96138

> <minimizedRMSD>
1.63154

> <CNNaffinity>
-1.0000000000

> <CNNgradient>
14.9721536636

$$$$



 47 54  0  0  0  0  0  0  0  0999 V2000
   -7.8337    5.0511    6.9803 C   0  0  0  0  0  0  0  0  0  0  0  0
   -6.6800    5.7065    7.2305 N   0  0  0  0  0  0  0  0  0  0  0  0
   -6.5992    6.5199    8.3168 N   0  0  0  0  0  0  0  0  0  0  0  0
   -7.6723    6.6489    9.1263 C   0  0  0  0  0  0  0  0  0  0  0  0
   -8.8720    5.9936    8.9070 C   0  0  0  0  0  0  0  0  0  0  0  0
   -9.9578    6.1306    9.7884 N   0  0  0  0  0  0  0  0  0  0  0  0
  -11.0972    5.4336    9.6122 C   0  0  0  0  0  0  0  0  0  0  0  0
  -12.2017    5.3409   10.3197 N   0  0  0  0  0  0  0  0  0  0  0  0
  -13.0017    4.4321    9.6575 N   0  0  0  0  0  0  0  0  0  0  0  0
  -12.4052    3.9748    8.5618 N   0  0  0  0  0  0  0  0  0  0  0  0
  -11.2296    4.6190    8.5197 N   0  0  0  0  0  0  0  0  0  0  0  0
  -10.2475    4.4222    7.4545 C   0  0  0  0  0  0  0  0  0  0  0  0
   -8.9606    5.1672    7.7793 C   0  0  0  0  0  0  0  0  0  0  0  0
   -7.5231    7.4716   10.2113 O   0  0  0  0  0  0  0  0  0  0  0  0
   -9.8844    6.7490   10.5509 H   0  0  0  0  0  0  0  0  0  0  0  0
   -6.7095    7.9133   10.3560 H   0  0  0  0  0  0  0  0  0  0  0  0
   -7.7670    4.2026    5.8123 C   0  0  0  0  0  0  0  0  0  0  0  0
   -7.6695    2.8072    5.8886 C   0  0  0  0  0  0  0  0  0  0  0  0
   -7.6994    1.9841    4.7652 C   0  0  0  0  0  0  0  0  0  0  0  0
   -7.8153    2.5619    3.4808 C   0  0  0  0  0  0  0  0  0  0  0  0
   -7.9403    3.9346    3.3542 N   0  0  0  0  0  0  0  0  0  0  0  0
   -7.9315    4.7395    4.4728 C   0  0  0  0  0  0  0  0  0  0  0  0
   -8.0208    5.9948    4.3572 O   0  0  0  0  0  0  0  0  0  0  0  0
   -7.9187    1.6493    2.2689 C   0  0  0  0  0  0  0  0  0  0  0  0
   -7.5239    0.1929    2.5580 C   0  0  0  0  0  0  0  0  0  0  0  0
   -8.0749   -0.2945    3.8346 N   0  0  0  0  0  0  0  0  0  0  0  0
   -7.5307    0.4939    4.9570 C   0  0  0  0  0  0  0  0  0  0  0  0
   -8.0815    4.5677    2.0208 C   0  0  0  0  0  0  0  0  0  0  0  0
   -6.7375    4.6402    1.2652 C   0  0  0  0  0  0  0  0  0  0  0  0
   -5.5419    5.2349    2.0001 C   0  0  0  0  0  0  0  0  0  0  0  0
   -6.2574    6.0502    0.9384 C   0  0  0  0  0  0  0  0  0  0  0  0
   -9.5536   -0.3404    3.8312 C   0  0  0  0  0  0  0  0  0  0  0  0
  -10.0359   -1.6674    4.3341 C   0  0  0  0  0  0  0  0  0  0  0  0
   -9.2231   -2.7033    4.6175 N   0  0  0  0  0  0  0  0  0  0  0  0
  -10.0363   -3.6831    5.0523 C   0  0  0  0  0  0  0  0  0  0  0  0
  -11.3359   -3.2212    5.0243 C   0  0  0  0  0  0  0  0  0  0  0  0
  -11.3304   -1.9547    4.5714 N   0  0  0  0  0  0  0  0  0  0  0  0
   -8.2434   -2.7365    4.5261 H   0  0  0  0  0  0  0  0  0  0  0  0
  -12.1069   -1.3636    4.4412 H   0  0  0  0  0  0  0  0  0  0  0  0
  -10.8647    4.8883    6.1723 C   0  0  0  0  0  0  0  0  0  0  0  0
  -11.1742    6.2370    5.9971 C   0  0  0  0  0  0  0  0  0  0  0  0
  -11.7487    6.6714    4.8021 C   0  0  0  0  0  0  0  0  0  0  0  0
  -12.0158    5.7567    3.7841 C   0  0  0  0  0  0  0  0  0  0  0  0
  -11.7072    4.4070    3.9591 C   0  0  0  0  0  0  0  0  0  0  0  0
  -11.1308    3.9737    5.1544 C   0  0  0  0  0  0  0  0  0  0  0  0
  -12.0506    7.9869    4.6308 O   0  0  0  0  0  0  0  0  0  0  0  0
  -11.8711    8.6017    5.3148 H   0  0  0  0  0  0  0  0  0  0  0  0
  1  2  2  0  0  0
  1 13  1  0  0  0
  1 17  1  0  0  0
  2  3  1  0  0  0
  3  4  2  0  0  0
  4  5  1  0  0  0
  4 14  1  0  0  0
  5  6  1  0  0  0
  5 13  2  0  0  0
  6  7  1  0  0  0
  7  8  2  0  0  0
  7 11  1  0  0  0
  8  9  1  0  0  0
  9 10  2  0  0  0
 10 11  1  0  0  0
 11 12  1  0  0  0
 12 13  1  0  0  0
 12 40  1  0  0  0
 40 41  2  0  0  0
 40 45  1  0  0  0
 41 42  1  0  0  0
 42 43  2  0  0  0
 42 46  1  0  0  0
 43 44  1  0  0  0
 44 45  2  0  0  0
 18 19  1  0  0  0
 19 20  2  0  0  0
 20 21  1  0  0  0
 21 28  1  0  0  0
 28 29  1  0  0  0
 29 30  1  0  0  0
 30 31  1  0  0  0
 21 22  1  0  0  0
 22 23  2  0  0  0
 20 24  1  0  0  0
 24 25  1  0  0  0
 25 26  1  0  0  0
 26 32  1  0  0  0
 32 33  1  0  0  0
 33 34  1  0  0  0
 34 35  1  0  0  0
 35 36  2  0  0  0
 36 37  1  0  0  0
 26 27  1  0  0  0
 37 33  2  0  0  0
 27 19  1  0  0  0
 31 29  1  0  0  0
 17 18  2  0  0  0
 17 22  1  0  0  0
  6 15  1  0  0  0
 46 47  1  0  0  0
 14 16  1  0  0  0
 34 38  1  0  0  0
 37 39  1  0  0  0
M  CHG 1  37   1
M  END
> <minimizedAffinity>
-6.98843

> <minimizedRMSD>
1.90287

> <CNNaffinity>
-1.0000000000

> <CNNgradient>
17.1996173859

$$$$



 49 55  0  0  0  0  0  0  0  0999 V2000
   -7.7560    4.4423    4.8510 C   0  0  0  0  0  0  0  0  0  0  0  0
   -8.2104    4.9730    3.5777 C   0  0  0  0  0  0  0  0  0  0  0  0
   -8.5133    6.4137    3.3134 C   0  0  0  0  0  0  0  0  0  0  0  0
   -8.3463    3.7486    2.4194 S   0  0  0  0  0  0  0  0  0  0  0  0
   -7.8939    2.5254    3.4706 C   0  0  0  0  0  0  0  0  0  0  0  0
   -7.7810    1.2143    3.1757 N   0  0  0  0  0  0  0  0  0  0  0  0
   -7.4173    0.3412    4.1534 C   0  0  0  0  0  0  0  0  0  0  0  0
   -7.1888    0.7713    5.4445 N   0  0  0  0  0  0  0  0  0  0  0  0
   -7.2852    2.1167    5.7393 C   0  0  0  0  0  0  0  0  0  0  0  0
   -7.0627    2.5343    6.9089 O   0  0  0  0  0  0  0  0  0  0  0  0
   -7.6403    3.0222    4.7288 C   0  0  0  0  0  0  0  0  0  0  0  0
   -7.6137    5.2528    6.0390 C   0  0  0  0  0  0  0  0  0  0  0  0
   -6.4493    5.9350    6.0835 N   0  0  0  0  0  0  0  0  0  0  0  0
   -6.1775    6.7173    7.1616 N   0  0  0  0  0  0  0  0  0  0  0  0
   -7.0748    6.7894    8.1681 C   0  0  0  0  0  0  0  0  0  0  0  0
   -8.2782    6.1050    8.1630 C   0  0  0  0  0  0  0  0  0  0  0  0
   -9.1742    6.1824    9.2428 N   0  0  0  0  0  0  0  0  0  0  0  0
  -10.3091    5.4569    9.2666 C   0  0  0  0  0  0  0  0  0  0  0  0
  -11.2518    5.3095   10.1714 N   0  0  0  0  0  0  0  0  0  0  0  0
  -12.1438    4.3974    9.6454 N   0  0  0  0  0  0  0  0  0  0  0  0
  -11.7618    3.9916    8.4392 N   0  0  0  0  0  0  0  0  0  0  0  0
  -10.6327    4.6720    8.1924 N   0  0  0  0  0  0  0  0  0  0  0  0
   -9.8730    4.5372    6.9505 C   0  0  0  0  0  0  0  0  0  0  0  0
   -8.5655    5.3106    7.0454 C   0  0  0  0  0  0  0  0  0  0  0  0
   -6.7363    7.5831    9.2320 O   0  0  0  0  0  0  0  0  0  0  0  0
   -8.9681    6.7795    9.9979 H   0  0  0  0  0  0  0  0  0  0  0  0
   -5.9208    8.0446    9.2315 H   0  0  0  0  0  0  0  0  0  0  0  0
  -10.7393    5.0228    5.8299 C   0  0  0  0  0  0  0  0  0  0  0  0
  -11.0814    6.3726    5.7474 C   0  0  0  0  0  0  0  0  0  0  0  0
  -11.8881    6.8252    4.7029 C   0  0  0  0  0  0  0  0  0  0  0  0
  -12.3547    5.9278    3.7431 C   0  0  0  0  0  0  0  0  0  0  0  0
  -12.0136    4.5770    3.8257 C   0  0  0  0  0  0  0  0  0  0  0  0
  -11.2049    4.1255    4.8701 C   0  0  0  0  0  0  0  0  0  0  0  0
  -12.2218    8.1418    4.6221 O   0  0  0  0  0  0  0  0  0  0  0  0
  -11.9083    8.7450    5.2670 H   0  0  0  0  0  0  0  0  0  0  0  0
   -6.7661   -0.1791    6.5052 C   0  0  0  0  0  0  0  0  0  0  0  0
   -7.3348   -1.5979    6.3313 C   0  0  0  0  0  0  0  0  0  0  0  0
   -5.2628   -0.2030    6.6221 C   0  0  0  0  0  0  0  0  0  0  0  0
   -4.7181    0.3755    7.6012 O   0  0  0  0  0  0  0  0  0  0  0  0
   -4.4564   -0.8293    5.6096 N   0  0  0  0  0  0  0  0  0  0  0  0
   -4.8995   -1.1171    4.7789 H   0  0  0  0  0  0  0  0  0  0  0  0
   -3.0433   -1.0613    5.7354 C   0  0  0  0  0  0  0  0  0  0  0  0
   -2.5401   -2.1784    6.4271 C   0  0  0  0  0  0  0  0  0  0  0  0
   -1.1612   -2.3928    6.5125 C   0  0  0  0  0  0  0  0  0  0  0  0
   -0.2710   -1.5069    5.8982 C   0  0  0  0  0  0  0  0  0  0  0  0
    1.0999   -1.7319    5.9939 O   0  0  0  0  0  0  0  0  0  0  0  0
   -0.7664   -0.4057    5.1890 C   0  0  0  0  0  0  0  0  0  0  0  0
   -2.1446   -0.1887    5.1029 C   0  0  0  0  0  0  0  0  0  0  0  0
    1.4211   -2.4718    6.4708 H   0  0  0  0  0  0  0  0  0  0  0  0
 12 13  2  0  0  0
 12 24  1  0  0  0
 12  1  1  0  0  0
 13 14  1  0  0  0
 14 15  2  0  0  0
 15 16  1  0  0  0
 15 25  1  0  0  0
 16 17  1  0  0  0
 16 24  2  0  0  0
 17 18  1  0  0  0
 18 19  2  0  0  0
 18 22  1  0  0  0
 19 20  1  0  0  0
 20 21  2  0  0  0
 21 22  1  0  0  0
 22 23  1  0  0  0
 23 24  1  0  0  0
 23 28  1  0  0  0
 28 29  2  0  0  0
 28 33  1  0  0  0
 29 30  1  0  0  0
 30 31  2  0  0  0
 30 34  1  0  0  0
 31 32  1  0  0  0
 32 33  2  0  0  0
  2  3  1  0  0  0
  2  4  1  0  0  0
  4  5  1  0  0  0
  5  6  1  0  0  0
  6  7  2  0  0  0
  7  8  1  0  0  0
  8 36  1  0  0  0
 36 37  1  0  0  0
 36 38  1  0  0  0
 38 39  2  0  0  0
 38 40  1  0  0  0
 40 42  1  0  0  0
 42 43  2  0  0  0
 43 44  1  0  0  0
 44 45  2  0  0  0
 45 46  1  0  0  0
 45 47  1  0  0  0
 47 48  2  0  0  0
  8  9  1  0  0  0
  9 10  2  0  0  0
  9 11  1  0  0  0
 11  5  2  0  0  0
 48 42  1  0  0  0
  1  2  2  0  0  0
  1 11  1  0  0  0
 17 26  1  0  0  0
 34 35  1  0  0  0
 25 27  1  0  0  0
 40 41  1  0  0  0
 46 49  1  0  0  0
M  END
> <minimizedAffinity>
-6.78931

> <minimizedRMSD>
1.87950

> <CNNaffinity>
-1.0000000000

> <CNNgradient>
16.4091148376

$$$$



 49 55  0  0  0  0  0  0  0  0999 V2000
   -7.7197    4.6294    4.7191 C   0  0  0  0  0  0  0  0  0  0  0  0
   -7.9731    5.3788    3.4996 C   0  0  0  0  0  0  0  0  0  0  0  0
   -8.2332    6.8520    3.4444 C   0  0  0  0  0  0  0  0  0  0  0  0
   -7.7712    4.4009    2.1354 S   0  0  0  0  0  0  0  0  0  0  0  0
   -7.4420    3.0136    3.0137 C   0  0  0  0  0  0  0  0  0  0  0  0
   -7.1855    1.7875    2.5146 N   0  0  0  0  0  0  0  0  0  0  0  0
   -6.9381    0.7599    3.3713 C   0  0  0  0  0  0  0  0  0  0  0  0
   -6.9503    0.9512    4.7375 N   0  0  0  0  0  0  0  0  0  0  0  0
   -7.2554    2.1987    5.2478 C   0  0  0  0  0  0  0  0  0  0  0  0
   -7.3538    2.3820    6.4903 O   0  0  0  0  0  0  0  0  0  0  0  0
   -7.4769    3.2668    4.3660 C   0  0  0  0  0  0  0  0  0  0  0  0
   -7.8155    5.2089    6.0396 C   0  0  0  0  0  0  0  0  0  0  0  0
   -6.6934    5.8555    6.4214 N   0  0  0  0  0  0  0  0  0  0  0  0
   -6.6411    6.4255    7.6546 N   0  0  0  0  0  0  0  0  0  0  0  0
   -7.7100    6.3261    8.4737 C   0  0  0  0  0  0  0  0  0  0  0  0
   -8.8777    5.6707    8.1222 C   0  0  0  0  0  0  0  0  0  0  0  0
   -9.9589    5.5634    9.0133 N   0  0  0  0  0  0  0  0  0  0  0  0
  -11.0638    4.8613    8.6951 C   0  0  0  0  0  0  0  0  0  0  0  0
  -12.1541    4.5653    9.3679 N   0  0  0  0  0  0  0  0  0  0  0  0
  -12.9151    3.7761    8.5297 N   0  0  0  0  0  0  0  0  0  0  0  0
  -12.3089    3.5906    7.3620 N   0  0  0  0  0  0  0  0  0  0  0  0
  -11.1677    4.2888    7.4557 N   0  0  0  0  0  0  0  0  0  0  0  0
  -10.1892    4.3711    6.3723 C   0  0  0  0  0  0  0  0  0  0  0  0
   -8.9377    5.0963    6.8458 C   0  0  0  0  0  0  0  0  0  0  0  0
   -7.5898    6.9090    9.7075 O   0  0  0  0  0  0  0  0  0  0  0  0
   -9.9079    6.0107    9.8888 H   0  0  0  0  0  0  0  0  0  0  0  0
   -6.7978    7.3516    9.9414 H   0  0  0  0  0  0  0  0  0  0  0  0
  -10.8436    5.0638    5.2173 C   0  0  0  0  0  0  0  0  0  0  0  0
  -11.2521    6.3918    5.3411 C   0  0  0  0  0  0  0  0  0  0  0  0
  -11.8612    7.0374    4.2647 C   0  0  0  0  0  0  0  0  0  0  0  0
  -12.0641    6.3544    3.0661 C   0  0  0  0  0  0  0  0  0  0  0  0
  -11.6565    5.0254    2.9419 C   0  0  0  0  0  0  0  0  0  0  0  0
  -11.0455    4.3809    4.0189 C   0  0  0  0  0  0  0  0  0  0  0  0
  -12.2597    8.3328    4.3851 O   0  0  0  0  0  0  0  0  0  0  0  0
  -12.1234    8.7919    5.1904 H   0  0  0  0  0  0  0  0  0  0  0  0
   -6.6793   -0.2232    5.6054 C   0  0  0  0  0  0  0  0  0  0  0  0
   -6.3591    0.1811    7.0564 C   0  0  0  0  0  0  0  0  0  0  0  0
   -7.8167   -1.2170    5.5221 C   0  0  0  0  0  0  0  0  0  0  0  0
   -8.9871   -0.8066    5.3009 O   0  0  0  0  0  0  0  0  0  0  0  0
   -7.5809   -2.6324    5.5843 N   0  0  0  0  0  0  0  0  0  0  0  0
   -8.1387   -3.2183    5.0234 H   0  0  0  0  0  0  0  0  0  0  0  0
   -6.5828   -3.2458    6.4132 C   0  0  0  0  0  0  0  0  0  0  0  0
   -6.8467   -3.5452    7.7602 C   0  0  0  0  0  0  0  0  0  0  0  0
   -5.8726   -4.1615    8.5508 C   0  0  0  0  0  0  0  0  0  0  0  0
   -4.6308   -4.4987    7.9986 C   0  0  0  0  0  0  0  0  0  0  0  0
   -3.6577   -5.1252    8.7721 O   0  0  0  0  0  0  0  0  0  0  0  0
   -4.3689   -4.2143    6.6540 C   0  0  0  0  0  0  0  0  0  0  0  0
   -5.3438   -3.5990    5.8622 C   0  0  0  0  0  0  0  0  0  0  0  0
   -3.8279   -5.3179    9.6732 H   0  0  0  0  0  0  0  0  0  0  0  0
 12 13  2  0  0  0
 12 24  1  0  0  0
 12  1  1  0  0  0
 13 14  1  0  0  0
 14 15  2  0  0  0
 15 16  1  0  0  0
 15 25  1  0  0  0
 16 17  1  0  0  0
 16 24  2  0  0  0
 17 18  1  0  0  0
 18 19  2  0  0  0
 18 22  1  0  0  0
 19 20  1  0  0  0
 20 21  2  0  0  0
 21 22  1  0  0  0
 22 23  1  0  0  0
 23 24  1  0  0  0
 23 28  1  0  0  0
 28 29  2  0  0  0
 28 33  1  0  0  0
 29 30  1  0  0  0
 30 31  2  0  0  0
 30 34  1  0  0  0
 31 32  1  0  0  0
 32 33  2  0  0  0
  2  3  1  0  0  0
  2  4  1  0  0  0
  4  5  1  0  0  0
  5  6  1  0  0  0
  6  7  2  0  0  0
  7  8  1  0  0  0
  8 36  1  0  0  0
 36 37  1  0  0  0
 36 38  1  0  0  0
 38 39  2  0  0  0
 38 40  1  0  0  0
 40 42  1  0  0  0
 42 43  2  0  0  0
 43 44  1  0  0  0
 44 45  2  0  0  0
 45 46  1  0  0  0
 45 47  1  0  0  0
 47 48  2  0  0  0
  8  9  1  0  0  0
  9 10  2  0  0  0
  9 11  1  0  0  0
 11  5  2  0  0  0
 48 42  1  0  0  0
  1  2  2  0  0  0
  1 11  1  0  0  0
 17 26  1  0  0  0
 34 35  1  0  0  0
 25 27  1  0  0  0
 40 41  1  0  0  0
 46 49  1  0  0  0
M  END
> <minimizedAffinity>
-6.78014

> <minimizedRMSD>
2.26211

> <CNNaffinity>
-1.0000000000

> <CNNgradient>
20.7553119659

$$$$



 41 48  0  0  0  0  0  0  0  0999 V2000
   -7.8781    5.2223    6.0832 C   0  0  0  0  0  0  0  0  0  0  0  0
   -6.7383    5.8716    6.4028 N   0  0  0  0  0  0  0  0  0  0  0  0
   -6.6335    6.4730    7.6176 N   0  0  0  0  0  0  0  0  0  0  0  0
   -7.6691    6.4015    8.4812 C   0  0  0  0  0  0  0  0  0  0  0  0
   -8.8534    5.7444    8.1940 C   0  0  0  0  0  0  0  0  0  0  0  0
   -9.8984    5.6668    9.1302 N   0  0  0  0  0  0  0  0  0  0  0  0
  -11.0188    4.9636    8.8749 C   0  0  0  0  0  0  0  0  0  0  0  0
  -12.0827    4.6918    9.5983 N   0  0  0  0  0  0  0  0  0  0  0  0
  -12.8808    3.8860    8.8122 N   0  0  0  0  0  0  0  0  0  0  0  0
  -12.3230    3.6665    7.6264 N   0  0  0  0  0  0  0  0  0  0  0  0
  -11.1754    4.3599    7.6560 N   0  0  0  0  0  0  0  0  0  0  0  0
  -10.2408    4.4080    6.5326 C   0  0  0  0  0  0  0  0  0  0  0  0
   -8.9676    5.1376    6.9365 C   0  0  0  0  0  0  0  0  0  0  0  0
   -7.4965    7.0153    9.6936 O   0  0  0  0  0  0  0  0  0  0  0  0
   -9.8099    6.1363    9.9910 H   0  0  0  0  0  0  0  0  0  0  0  0
   -6.6934    7.4589    9.8839 H   0  0  0  0  0  0  0  0  0  0  0  0
   -7.8385    4.6082    4.7756 C   0  0  0  0  0  0  0  0  0  0  0  0
   -7.6299    3.2240    4.5657 C   0  0  0  0  0  0  0  0  0  0  0  0
   -7.6745    2.6163    3.3375 C   0  0  0  0  0  0  0  0  0  0  0  0
   -7.9748    3.3064    2.2115 N   0  0  0  0  0  0  0  0  0  0  0  0
   -8.2347    4.6437    2.2795 C   0  0  0  0  0  0  0  0  0  0  0  0
   -8.5367    5.3484    1.0997 C   0  0  0  0  0  0  0  0  0  0  0  0
   -8.7856    6.7121    1.1997 C   0  0  0  0  0  0  0  0  0  0  0  0
   -8.7434    7.3694    2.3852 C   0  0  0  0  0  0  0  0  0  0  0  0
   -8.4516    6.7247    3.5828 C   0  0  0  0  0  0  0  0  0  0  0  0
   -8.1975    5.3308    3.5476 C   0  0  0  0  0  0  0  0  0  0  0  0
   -9.0247    8.7065    2.1797 O   0  0  0  0  0  0  0  0  0  0  0  0
   -9.2594    8.9005    0.7783 C   0  0  0  0  0  0  0  0  0  0  0  0
   -9.0965    7.6027    0.1900 O   0  0  0  0  0  0  0  0  0  0  0  0
   -7.3904    1.1499    3.4400 C   0  0  0  0  0  0  0  0  0  0  0  0
   -7.1873    0.9637    4.8444 O   0  0  0  0  0  0  0  0  0  0  0  0
   -7.3297    2.1730    5.5137 C   0  0  0  0  0  0  0  0  0  0  0  0
   -7.2272    2.3026    6.7615 O   0  0  0  0  0  0  0  0  0  0  0  0
  -10.9375    5.0747    5.3870 C   0  0  0  0  0  0  0  0  0  0  0  0
  -11.3013    6.4182    5.4785 C   0  0  0  0  0  0  0  0  0  0  0  0
  -11.9499    7.0396    4.4108 C   0  0  0  0  0  0  0  0  0  0  0  0
  -12.2368    6.3168    3.2535 C   0  0  0  0  0  0  0  0  0  0  0  0
  -11.8739    4.9723    3.1616 C   0  0  0  0  0  0  0  0  0  0  0  0
  -11.2234    4.3520    4.2297 C   0  0  0  0  0  0  0  0  0  0  0  0
  -12.3048    8.3500    4.4998 O   0  0  0  0  0  0  0  0  0  0  0  0
  -12.1121    8.8359    5.2775 H   0  0  0  0  0  0  0  0  0  0  0  0
  1  2  2  0  0  0
  1 13  1  0  0  0
  1 17  1  0  0  0
  2  3  1  0  0  0
  3  4  2  0  0  0
  4  5  1  0  0  0
  4 14  1  0  0  0
  5  6  1  0  0  0
  5 13  2  0  0  0
  6  7  1  0  0  0
  7  8  2  0  0  0
  7 11  1  0  0  0
  8  9  1  0  0  0
  9 10  2  0  0  0
 10 11  1  0  0  0
 11 12  1  0  0  0
 12 13  1  0  0  0
 12 34  1  0  0  0
 34 35  2  0  0  0
 34 39  1  0  0  0
 35 36  1  0  0  0
 36 37  2  0  0  0
 36 40  1  0  0  0
 37 38  1  0  0  0
 38 39  2  0  0  0
 18 19  2  0  0  0
 19 20  1  0  0  0
 20 21  2  0  0  0
 21 22  1  0  0  0
 22 23  2  0  0  0
 23 24  1  0  0  0
 24 25  2  0  0  0
 25 26  1  0  0  0
 24 27  1  0  0  0
 27 28  1  0  0  0
 28 29  1  0  0  0
 19 30  1  0  0  0
 30 31  1  0  0  0
 31 32  1  0  0  0
 32 33  2  0  0  0
 32 18  1  0  0  0
 26 21  1  0  0  0
 29 23  1  0  0  0
 17 18  1  0  0  0
 17 26  2  0  0  0
  6 15  1  0  0  0
 40 41  1  0  0  0
 14 16  1  0  0  0
M  END
> <minimizedAffinity>
-7.47895

> <minimizedRMSD>
1.74948

> <CNNaffinity>
-1.0000000000

> <CNNgradient>
24.9698467255

$$$$



 32 36  0  0  0  0  0  0  0  0999 V2000
   -7.5826    5.1470    6.5424 C   0  0  0  0  0  0  0  0  0  0  0  0
   -6.4103    5.8137    6.6080 N   0  0  0  0  0  0  0  0  0  0  0  0
   -6.1804    6.6540    7.6517 N   0  0  0  0  0  0  0  0  0  0  0  0
   -7.1267    6.7979    8.6042 C   0  0  0  0  0  0  0  0  0  0  0  0
   -8.3400    6.1319    8.5760 C   0  0  0  0  0  0  0  0  0  0  0  0
   -9.2886    6.2855    9.6013 N   0  0  0  0  0  0  0  0  0  0  0  0
  -10.4358    5.5792    9.6078 C   0  0  0  0  0  0  0  0  0  0  0  0
  -11.4260    5.4988   10.4693 N   0  0  0  0  0  0  0  0  0  0  0  0
  -12.3057    4.5704    9.9512 N   0  0  0  0  0  0  0  0  0  0  0  0
  -11.8696    4.0890    8.7921 N   0  0  0  0  0  0  0  0  0  0  0  0
  -10.7176    4.7373    8.5655 N   0  0  0  0  0  0  0  0  0  0  0  0
   -9.8978    4.5189    7.3748 C   0  0  0  0  0  0  0  0  0  0  0  0
   -8.5836    5.2775    7.4927 C   0  0  0  0  0  0  0  0  0  0  0  0
   -6.8293    7.6478    9.6365 O   0  0  0  0  0  0  0  0  0  0  0  0
   -9.1111    6.9229   10.3303 H   0  0  0  0  0  0  0  0  0  0  0  0
   -6.0069    8.0966    9.6518 H   0  0  0  0  0  0  0  0  0  0  0  0
   -7.6781    4.2703    5.3975 C   0  0  0  0  0  0  0  0  0  0  0  0
   -8.0585    4.6232    4.1409 N   0  0  0  0  0  0  0  0  0  0  0  0
   -7.9862    3.5619    3.3499 N   0  0  0  0  0  0  0  0  0  0  0  0
   -7.5354    2.5422    4.1040 C   0  0  0  0  0  0  0  0  0  0  0  0
   -7.2680    0.8884    3.4727 S   0  0  0  0  0  0  0  0  0  0  0  0
   -7.3212    2.9234    5.3767 N   0  0  0  0  0  0  0  0  0  0  0  0
   -6.8590    2.0983    6.4912 C   0  0  0  0  0  0  0  0  0  0  0  0
   -7.5823    0.8518    2.1500 H   0  0  0  0  0  0  0  0  0  0  0  0
  -10.6970    4.9504    6.1843 C   0  0  0  0  0  0  0  0  0  0  0  0
  -11.0145    6.2971    6.0084 C   0  0  0  0  0  0  0  0  0  0  0  0
  -11.7587    6.6993    4.8988 C   0  0  0  0  0  0  0  0  0  0  0  0
  -12.1873    5.7545    3.9673 C   0  0  0  0  0  0  0  0  0  0  0  0
  -11.8708    4.4067    4.1432 C   0  0  0  0  0  0  0  0  0  0  0  0
  -11.1246    4.0056    5.2527 C   0  0  0  0  0  0  0  0  0  0  0  0
  -12.0684    8.0129    4.7269 O   0  0  0  0  0  0  0  0  0  0  0  0
  -11.7805    8.6480    5.3529 H   0  0  0  0  0  0  0  0  0  0  0  0
  1  2  2  0  0  0
  1 13  1  0  0  0
  1 17  1  0  0  0
  2  3  1  0  0  0
  3  4  2  0  0  0
  4  5  1  0  0  0
  4 14  1  0  0  0
  5  6  1  0  0  0
  5 13  2  0  0  0
  6  7  1  0  0  0
  7  8  2  0  0  0
  7 11  1  0  0  0
  8  9  1  0  0  0
  9 10  2  0  0  0
 10 11  1  0  0  0
 11 12  1  0  0  0
 12 13  1  0  0  0
 12 25  1  0  0  0
 25 26  2  0  0  0
 25 30  1  0  0  0
 26 27  1  0  0  0
 27 28  2  0  0  0
 27 31  1  0  0  0
 28 29  1  0  0  0
 29 30  2  0  0  0
 18 19  1  0  0  0
 19 20  2  0  0  0
 20 21  1  0  0  0
 20 22  1  0  0  0
 22 23  1  0  0  0
 17 18  2  0  0  0
 17 22  1  0  0  0
  6 15  1  0  0  0
 31 32  1  0  0  0
 14 16  1  0  0  0
 21 24  1  0  0  0
M  END
> <minimizedAffinity>
-7.50755

> <minimizedRMSD>
1.25877

> <CNNaffinity>
-1.0000000000

> <CNNgradient>
10.6250410080

$$$$



 43 49  0  0  0  0  0  0  0  0999 V2000
   -7.7362    5.3440    6.0356 C   0  0  0  0  0  0  0  0  0  0  0  0
   -6.5894    6.0344    6.2120 N   0  0  0  0  0  0  0  0  0  0  0  0
   -6.4161    6.7564    7.3509 N   0  0  0  0  0  0  0  0  0  0  0  0
   -7.3918    6.7613    8.2844 C   0  0  0  0  0  0  0  0  0  0  0  0
   -8.5807    6.0660    8.1438 C   0  0  0  0  0  0  0  0  0  0  0  0
   -9.5610    6.0720    9.1506 N   0  0  0  0  0  0  0  0  0  0  0  0
  -10.6833    5.3347    9.0420 C   0  0  0  0  0  0  0  0  0  0  0  0
  -11.6929    5.1260    9.8583 N   0  0  0  0  0  0  0  0  0  0  0  0
  -12.5264    4.2364    9.2115 N   0  0  0  0  0  0  0  0  0  0  0  0
  -12.0434    3.9044    8.0191 N   0  0  0  0  0  0  0  0  0  0  0  0
  -10.9085    4.6095    7.9027 N   0  0  0  0  0  0  0  0  0  0  0  0
  -10.0501    4.5540    6.7204 C   0  0  0  0  0  0  0  0  0  0  0  0
   -8.7661    5.3342    6.9637 C   0  0  0  0  0  0  0  0  0  0  0  0
   -7.1512    7.4961    9.4151 O   0  0  0  0  0  0  0  0  0  0  0  0
   -9.4248    6.6269    9.9523 H   0  0  0  0  0  0  0  0  0  0  0  0
   -6.3452    7.9652    9.5063 H   0  0  0  0  0  0  0  0  0  0  0  0
   -7.7713    4.6016    4.7962 C   0  0  0  0  0  0  0  0  0  0  0  0
   -8.1254    5.1994    3.5207 C   0  0  0  0  0  0  0  0  0  0  0  0
   -8.3937    6.6553    3.3087 C   0  0  0  0  0  0  0  0  0  0  0  0
   -8.1258    4.0440    2.2841 S   0  0  0  0  0  0  0  0  0  0  0  0
   -7.7462    2.7659    3.2978 C   0  0  0  0  0  0  0  0  0  0  0  0
   -7.5878    1.4716    2.9387 N   0  0  0  0  0  0  0  0  0  0  0  0
   -7.2990    0.5480    3.8988 C   0  0  0  0  0  0  0  0  0  0  0  0
   -7.1700    0.9331    5.2079 N   0  0  0  0  0  0  0  0  0  0  0  0
   -7.3312    2.2358    5.5852 C   0  0  0  0  0  0  0  0  0  0  0  0
   -7.2342    2.5529    6.8007 O   0  0  0  0  0  0  0  0  0  0  0  0
   -7.6156    3.1955    4.6037 C   0  0  0  0  0  0  0  0  0  0  0  0
   -6.9566    0.2565    5.8906 H   0  0  0  0  0  0  0  0  0  0  0  0
   -7.0812   -0.8830    3.5063 C   0  0  0  0  0  0  0  0  0  0  0  0
   -5.7610   -1.3732    4.0377 C   0  0  0  0  0  0  0  0  0  0  0  0
   -4.5591   -0.8327    3.5487 C   0  0  0  0  0  0  0  0  0  0  0  0
   -3.3314   -1.2779    4.0486 C   0  0  0  0  0  0  0  0  0  0  0  0
   -3.2945   -2.2639    5.0384 C   0  0  0  0  0  0  0  0  0  0  0  0
   -4.4850   -2.8071    5.5294 C   0  0  0  0  0  0  0  0  0  0  0  0
   -5.7152   -2.3650    5.0326 C   0  0  0  0  0  0  0  0  0  0  0  0
  -10.8315    5.0943    5.5629 C   0  0  0  0  0  0  0  0  0  0  0  0
  -11.2049    6.4380    5.5398 C   0  0  0  0  0  0  0  0  0  0  0  0
  -11.9323    6.9415    4.4610 C   0  0  0  0  0  0  0  0  0  0  0  0
  -12.2884    6.1008    3.4072 C   0  0  0  0  0  0  0  0  0  0  0  0
  -11.9160    4.7560    3.4300 C   0  0  0  0  0  0  0  0  0  0  0  0
  -11.1866    4.2536    4.5090 C   0  0  0  0  0  0  0  0  0  0  0  0
  -12.2966    8.2523    4.4383 O   0  0  0  0  0  0  0  0  0  0  0  0
  -12.0574    8.8173    5.1464 H   0  0  0  0  0  0  0  0  0  0  0  0
  1  2  2  0  0  0
  1 13  1  0  0  0
  1 17  1  0  0  0
  2  3  1  0  0  0
  3  4  2  0  0  0
  4  5  1  0  0  0
  4 14  1  0  0  0
  5  6  1  0  0  0
  5 13  2  0  0  0
  6  7  1  0  0  0
  7  8  2  0  0  0
  7 11  1  0  0  0
  8  9  1  0  0  0
  9 10  2  0  0  0
 10 11  1  0  0  0
 11 12  1  0  0  0
 12 13  1  0  0  0
 12 36  1  0  0  0
 36 37  2  0  0  0
 36 41  1  0  0  0
 37 38  1  0  0  0
 38 39  2  0  0  0
 38 42  1  0  0  0
 39 40  1  0  0  0
 40 41  2  0  0  0
 18 19  1  0  0  0
 18 20  1  0  0  0
 20 21  1  0  0  0
 21 22  1  0  0  0
 22 23  2  0  0  0
 23 29  1  0  0  0
 29 30  1  0  0  0
 30 31  2  0  0  0
 31 32  1  0  0  0
 32 33  2  0  0  0
 33 34  1  0  0  0
 34 35  2  0  0  0
 23 24  1  0  0  0
 24 25  1  0  0  0
 25 26  2  0  0  0
 25 27  1  0  0  0
 27 21  2  0  0  0
 35 30  1  0  0  0
 17 18  2  0  0  0
 17 27  1  0  0  0
  6 15  1  0  0  0
 42 43  1  0  0  0
 14 16  1  0  0  0
 24 28  1  0  0  0
M  END
> <minimizedAffinity>
-6.66978

> <minimizedRMSD>
1.60930

> <CNNaffinity>
-1.0000000000

> <CNNgradient>
14.8688802719

$$$$



 43 49  0  0  0  0  0  0  0  0999 V2000
   -7.7331    5.3486    6.0311 C   0  0  0  0  0  0  0  0  0  0  0  0
   -6.5876    6.0410    6.2088 N   0  0  0  0  0  0  0  0  0  0  0  0
   -6.4157    6.7610    7.3492 N   0  0  0  0  0  0  0  0  0  0  0  0
   -7.3913    6.7620    8.2828 C   0  0  0  0  0  0  0  0  0  0  0  0
   -8.5788    6.0646    8.1409 C   0  0  0  0  0  0  0  0  0  0  0  0
   -9.5589    6.0666    9.1478 N   0  0  0  0  0  0  0  0  0  0  0  0
  -10.6798    5.3272    9.0378 C   0  0  0  0  0  0  0  0  0  0  0  0
  -11.6889    5.1148    9.8538 N   0  0  0  0  0  0  0  0  0  0  0  0
  -12.5206    4.2249    9.2053 N   0  0  0  0  0  0  0  0  0  0  0  0
  -12.0371    3.8963    8.0122 N   0  0  0  0  0  0  0  0  0  0  0  0
  -10.9036    4.6039    7.8971 N   0  0  0  0  0  0  0  0  0  0  0  0
  -10.0453    4.5526    6.7146 C   0  0  0  0  0  0  0  0  0  0  0  0
   -8.7628    5.3348    6.9593 C   0  0  0  0  0  0  0  0  0  0  0  0
   -7.1520    7.4950    9.4149 O   0  0  0  0  0  0  0  0  0  0  0  0
   -9.4237    6.6201    9.9507 H   0  0  0  0  0  0  0  0  0  0  0  0
   -6.3469    7.9655    9.5070 H   0  0  0  0  0  0  0  0  0  0  0  0
   -7.7667    4.6086    4.7902 C   0  0  0  0  0  0  0  0  0  0  0  0
   -8.1244    5.2103    3.5161 C   0  0  0  0  0  0  0  0  0  0  0  0
   -8.4122    6.6629    3.3096 C   0  0  0  0  0  0  0  0  0  0  0  0
   -8.1432    4.0558    2.2795 S   0  0  0  0  0  0  0  0  0  0  0  0
   -7.7558    2.7759    3.2870 C   0  0  0  0  0  0  0  0  0  0  0  0
   -7.6056    1.4811    2.9249 N   0  0  0  0  0  0  0  0  0  0  0  0
   -7.3080    0.5545    3.8791 C   0  0  0  0  0  0  0  0  0  0  0  0
   -7.1585    0.9383    5.1865 N   0  0  0  0  0  0  0  0  0  0  0  0
   -7.3182    2.2403    5.5684 C   0  0  0  0  0  0  0  0  0  0  0  0
   -7.2081    2.5541    6.7836 O   0  0  0  0  0  0  0  0  0  0  0  0
   -7.6133    3.2025    4.5925 C   0  0  0  0  0  0  0  0  0  0  0  0
   -6.9314    0.2616    5.8645 H   0  0  0  0  0  0  0  0  0  0  0  0
   -7.1080   -0.8772    3.4749 C   0  0  0  0  0  0  0  0  0  0  0  0
   -5.8935   -1.0072    2.5946 C   0  0  0  0  0  0  0  0  0  0  0  0
   -4.6196   -0.6845    3.0943 C   0  0  0  0  0  0  0  0  0  0  0  0
   -3.4920   -0.7932    2.2730 C   0  0  0  0  0  0  0  0  0  0  0  0
   -3.6273   -1.2261    0.9502 C   0  0  0  0  0  0  0  0  0  0  0  0
   -4.8895   -1.5543    0.4478 C   0  0  0  0  0  0  0  0  0  0  0  0
   -6.0197   -1.4469    1.2655 C   0  0  0  0  0  0  0  0  0  0  0  0
  -10.8279    5.0935    5.5583 C   0  0  0  0  0  0  0  0  0  0  0  0
  -11.2041    6.4365    5.5381 C   0  0  0  0  0  0  0  0  0  0  0  0
  -11.9327    6.9408    4.4603 C   0  0  0  0  0  0  0  0  0  0  0  0
  -12.2871    6.1015    3.4047 C   0  0  0  0  0  0  0  0  0  0  0  0
  -11.9118    4.7575    3.4248 C   0  0  0  0  0  0  0  0  0  0  0  0
  -11.1812    4.2543    4.5027 C   0  0  0  0  0  0  0  0  0  0  0  0
  -12.2997    8.2508    4.4403 O   0  0  0  0  0  0  0  0  0  0  0  0
  -12.0617    8.8149    5.1496 H   0  0  0  0  0  0  0  0  0  0  0  0
  1  2  2  0  0  0
  1 13  1  0  0  0
  1 17  1  0  0  0
  2  3  1  0  0  0
  3  4  2  0  0  0
  4  5  1  0  0  0
  4 14  1  0  0  0
  5  6  1  0  0  0
  5 13  2  0  0  0
  6  7  1  0  0  0
  7  8  2  0  0  0
  7 11  1  0  0  0
  8  9  1  0  0  0
  9 10  2  0  0  0
 10 11  1  0  0  0
 11 12  1  0  0  0
 12 13  1  0  0  0
 12 36  1  0  0  0
 36 37  2  0  0  0
 36 41  1  0  0  0
 37 38  1  0  0  0
 38 39  2  0  0  0
 38 42  1  0  0  0
 39 40  1  0  0  0
 40 41  2  0  0  0
 18 19  1  0  0  0
 18 20  1  0  0  0
 20 21  1  0  0  0
 21 22  1  0  0  0
 22 23  2  0  0  0
 23 29  1  0  0  0
 29 30  1  0  0  0
 30 31  2  0  0  0
 31 32  1  0  0  0
 32 33  2  0  0  0
 33 34  1  0  0  0
 34 35  2  0  0  0
 23 24  1  0  0  0
 24 25  1  0  0  0
 25 26  2  0  0  0
 25 27  1  0  0  0
 27 21  2  0  0  0
 35 30  1  0  0  0
 17 18  2  0  0  0
 17 27  1  0  0  0
  6 15  1  0  0  0
 42 43  1  0  0  0
 14 16  1  0  0  0
 24 28  1  0  0  0
M  END
> <minimizedAffinity>
-6.55336

> <minimizedRMSD>
1.31667

> <CNNaffinity>
-1.0000000000

> <CNNgradient>
14.9510030746

$$$$



 43 49  0  0  0  0  0  0  0  0999 V2000
   -7.6006    5.2214    6.0340 C   0  0  0  0  0  0  0  0  0  0  0  0
   -6.4291    5.8926    6.0452 N   0  0  0  0  0  0  0  0  0  0  0  0
   -6.1322    6.6949    7.1018 N   0  0  0  0  0  0  0  0  0  0  0  0
   -7.0122    6.7973    8.1208 C   0  0  0  0  0  0  0  0  0  0  0  0
   -8.2222    6.1251    8.1497 C   0  0  0  0  0  0  0  0  0  0  0  0
   -9.0997    6.2344    9.2418 N   0  0  0  0  0  0  0  0  0  0  0  0
  -10.2411    5.5210    9.2993 C   0  0  0  0  0  0  0  0  0  0  0  0
  -11.1703    5.4023   10.2221 N   0  0  0  0  0  0  0  0  0  0  0  0
  -12.0795    4.4883    9.7300 N   0  0  0  0  0  0  0  0  0  0  0  0
  -11.7212    4.0531    8.5269 N   0  0  0  0  0  0  0  0  0  0  0  0
  -10.5897    4.7168    8.2475 N   0  0  0  0  0  0  0  0  0  0  0  0
   -9.8516    4.5480    6.9967 C   0  0  0  0  0  0  0  0  0  0  0  0
   -8.5353    5.3101    7.0540 C   0  0  0  0  0  0  0  0  0  0  0  0
   -6.6489    7.6100    9.1619 O   0  0  0  0  0  0  0  0  0  0  0  0
   -8.8756    6.8453    9.9806 H   0  0  0  0  0  0  0  0  0  0  0  0
   -5.8291    8.0631    9.1385 H   0  0  0  0  0  0  0  0  0  0  0  0
   -7.7701    4.3874    4.8660 C   0  0  0  0  0  0  0  0  0  0  0  0
   -8.2513    4.9002    3.5905 C   0  0  0  0  0  0  0  0  0  0  0  0
   -8.5150    6.3447    3.2974 C   0  0  0  0  0  0  0  0  0  0  0  0
   -8.4736    3.6528    2.4694 S   0  0  0  0  0  0  0  0  0  0  0  0
   -8.0251    2.4390    3.5358 C   0  0  0  0  0  0  0  0  0  0  0  0
   -7.9991    1.1114    3.2785 N   0  0  0  0  0  0  0  0  0  0  0  0
   -7.6380    0.2482    4.2712 C   0  0  0  0  0  0  0  0  0  0  0  0
   -7.2951    0.7296    5.5105 N   0  0  0  0  0  0  0  0  0  0  0  0
   -7.3359    2.0666    5.7902 C   0  0  0  0  0  0  0  0  0  0  0  0
   -7.0530    2.4724    6.9498 O   0  0  0  0  0  0  0  0  0  0  0  0
   -7.7020    2.9619    4.7737 C   0  0  0  0  0  0  0  0  0  0  0  0
   -7.0141    0.0986    6.2120 H   0  0  0  0  0  0  0  0  0  0  0  0
   -7.6196   -1.2295    3.9852 C   0  0  0  0  0  0  0  0  0  0  0  0
   -8.1286   -2.0368    5.1566 C   0  0  0  0  0  0  0  0  0  0  0  0
   -9.4921   -2.0087    5.5044 C   0  0  0  0  0  0  0  0  0  0  0  0
   -9.9575   -2.7590    6.5909 C   0  0  0  0  0  0  0  0  0  0  0  0
   -9.0744   -3.5673    7.3169 C   0  0  0  0  0  0  0  0  0  0  0  0
   -7.7225   -3.6189    6.9666 C   0  0  0  0  0  0  0  0  0  0  0  0
   -7.2486   -2.8548    5.8932 C   0  0  0  0  0  0  0  0  0  0  0  0
  -10.7313    5.0185    5.8801 C   0  0  0  0  0  0  0  0  0  0  0  0
  -11.0562    6.3705    5.7704 C   0  0  0  0  0  0  0  0  0  0  0  0
  -11.8754    6.8089    4.7295 C   0  0  0  0  0  0  0  0  0  0  0  0
  -12.3715    5.8951    3.8006 C   0  0  0  0  0  0  0  0  0  0  0  0
  -12.0476    4.5421    3.9103 C   0  0  0  0  0  0  0  0  0  0  0  0
  -11.2264    4.1047    4.9510 C   0  0  0  0  0  0  0  0  0  0  0  0
  -12.1923    8.1278    4.6223 O   0  0  0  0  0  0  0  0  0  0  0  0
  -11.8590    8.7420    5.2465 H   0  0  0  0  0  0  0  0  0  0  0  0
  1  2  2  0  0  0
  1 13  1  0  0  0
  1 17  1  0  0  0
  2  3  1  0  0  0
  3  4  2  0  0  0
  4  5  1  0  0  0
  4 14  1  0  0  0
  5  6  1  0  0  0
  5 13  2  0  0  0
  6  7  1  0  0  0
  7  8  2  0  0  0
  7 11  1  0  0  0
  8  9  1  0  0  0
  9 10  2  0  0  0
 10 11  1  0  0  0
 11 12  1  0  0  0
 12 13  1  0  0  0
 12 36  1  0  0  0
 36 37  2  0  0  0
 36 41  1  0  0  0
 37 38  1  0  0  0
 38 39  2  0  0  0
 38 42  1  0  0  0
 39 40  1  0  0  0
 40 41  2  0  0  0
 18 19  1  0  0  0
 18 20  1  0  0  0
 20 21  1  0  0  0
 21 22  1  0  0  0
 22 23  2  0  0  0
 23 29  1  0  0  0
 29 30  1  0  0  0
 30 31  2  0  0  0
 31 32  1  0  0  0
 32 33  2  0  0  0
 33 34  1  0  0  0
 34 35  2  0  0  0
 23 24  1  0  0  0
 24 25  1  0  0  0
 25 26  2  0  0  0
 25 27  1  0  0  0
 27 21  2  0  0  0
 35 30  1  0  0  0
 17 18  2  0  0  0
 17 27  1  0  0  0
  6 15  1  0  0  0
 42 43  1  0  0  0
 14 16  1  0  0  0
 24 28  1  0  0  0
M  END
> <minimizedAffinity>
-7.46271

> <minimizedRMSD>
1.61784

> <CNNaffinity>
-1.0000000000

> <CNNgradient>
16.9924373627

$$$$



 36 41  0  0  0  0  0  0  0  0999 V2000
   -7.4677    5.2574    6.4928 C   0  0  0  0  0  0  0  0  0  0  0  0
   -6.3190    5.9631    6.5682 N   0  0  0  0  0  0  0  0  0  0  0  0
   -6.1170    6.7941    7.6250 N   0  0  0  0  0  0  0  0  0  0  0  0
   -7.0666    6.8902    8.5803 C   0  0  0  0  0  0  0  0  0  0  0  0
   -8.2562    6.1832    8.5422 C   0  0  0  0  0  0  0  0  0  0  0  0
   -9.2083    6.2876    9.5704 N   0  0  0  0  0  0  0  0  0  0  0  0
  -10.3305    5.5421    9.5665 C   0  0  0  0  0  0  0  0  0  0  0  0
  -11.3163    5.4139   10.4271 N   0  0  0  0  0  0  0  0  0  0  0  0
  -12.1640    4.4640    9.8948 N   0  0  0  0  0  0  0  0  0  0  0  0
  -11.7129    4.0164    8.7280 N   0  0  0  0  0  0  0  0  0  0  0  0
  -10.5843    4.7077    8.5111 N   0  0  0  0  0  0  0  0  0  0  0  0
   -9.7587    4.5366    7.3165 C   0  0  0  0  0  0  0  0  0  0  0  0
   -8.4714    5.3382    7.4457 C   0  0  0  0  0  0  0  0  0  0  0  0
   -6.7975    7.7333    9.6258 O   0  0  0  0  0  0  0  0  0  0  0  0
   -9.0521    6.9191   10.3094 H   0  0  0  0  0  0  0  0  0  0  0  0
   -5.9911    8.2100    9.6477 H   0  0  0  0  0  0  0  0  0  0  0  0
   -7.5341    4.3962    5.3342 C   0  0  0  0  0  0  0  0  0  0  0  0
   -8.0459    4.9664    4.0599 C   0  0  0  0  0  0  0  0  0  0  0  0
   -8.2405    6.3450    3.9393 O   0  0  0  0  0  0  0  0  0  0  0  0
   -8.2612    4.1767    2.9286 C   0  0  0  0  0  0  0  0  0  0  0  0
   -8.0495    2.8014    2.9688 C   0  0  0  0  0  0  0  0  0  0  0  0
   -7.6291    2.1855    4.1529 C   0  0  0  0  0  0  0  0  0  0  0  0
   -7.4267    0.7964    4.1848 C   0  0  0  0  0  0  0  0  0  0  0  0
   -7.0292    0.1701    5.3660 C   0  0  0  0  0  0  0  0  0  0  0  0
   -6.8375    0.9202    6.5253 C   0  0  0  0  0  0  0  0  0  0  0  0
   -7.0332    2.3033    6.5108 C   0  0  0  0  0  0  0  0  0  0  0  0
   -7.4185    2.9637    5.3226 C   0  0  0  0  0  0  0  0  0  0  0  0
   -8.5630    6.7041    3.1362 H   0  0  0  0  0  0  0  0  0  0  0  0
  -10.5738    4.9590    6.1335 C   0  0  0  0  0  0  0  0  0  0  0  0
  -10.9279    6.2986    5.9731 C   0  0  0  0  0  0  0  0  0  0  0  0
  -11.6868    6.6923    4.8705 C   0  0  0  0  0  0  0  0  0  0  0  0
  -12.0936    5.7463    3.9305 C   0  0  0  0  0  0  0  0  0  0  0  0
  -11.7404    4.4056    4.0909 C   0  0  0  0  0  0  0  0  0  0  0  0
  -10.9796    4.0130    5.1935 C   0  0  0  0  0  0  0  0  0  0  0  0
  -12.0322    7.9990    4.7137 O   0  0  0  0  0  0  0  0  0  0  0  0
  -11.7590    8.6349    5.3453 H   0  0  0  0  0  0  0  0  0  0  0  0
  1  2  2  0  0  0
  1 13  1  0  0  0
  1 17  1  0  0  0
  2  3  1  0  0  0
  3  4  2  0  0  0
  4  5  1  0  0  0
  4 14  1  0  0  0
  5  6  1  0  0  0
  5 13  2  0  0  0
  6  7  1  0  0  0
  7  8  2  0  0  0
  7 11  1  0  0  0
  8  9  1  0  0  0
  9 10  2  0  0  0
 10 11  1  0  0  0
 11 12  1  0  0  0
 12 13  1  0  0  0
 12 29  1  0  0  0
 29 30  2  0  0  0
 29 34  1  0  0  0
 30 31  1  0  0  0
 31 32  2  0  0  0
 31 35  1  0  0  0
 32 33  1  0  0  0
 33 34  2  0  0  0
 18 19  1  0  0  0
 18 20  2  0  0  0
 20 21  1  0  0  0
 21 22  2  0  0  0
 22 23  1  0  0  0
 23 24  2  0  0  0
 24 25  1  0  0  0
 25 26  2  0  0  0
 26 27  1  0  0  0
 27 22  1  0  0  0
 17 18  1  0  0  0
 17 27  2  0  0  0
  6 15  1  0  0  0
 35 36  1  0  0  0
 14 16  1  0  0  0
 19 28  1  0  0  0
M  END
> <minimizedAffinity>
-7.88980

> <minimizedRMSD>
0.73636

> <CNNaffinity>
-1.0000000000

> <CNNgradient>
21.3571567535

$$$$



 42 47  0  0  0  0  0  0  0  0999 V2000
   -7.6735    5.0372    6.8225 C   0  0  0  0  0  0  0  0  0  0  0  0
   -6.4846    5.6746    6.8791 N   0  0  0  0  0  0  0  0  0  0  0  0
   -6.2515    6.5595    7.8846 N   0  0  0  0  0  0  0  0  0  0  0  0
   -7.2115    6.7761    8.8092 C   0  0  0  0  0  0  0  0  0  0  0  0
   -8.4421    6.1423    8.7890 C   0  0  0  0  0  0  0  0  0  0  0  0
   -9.4055    6.3722    9.7857 N   0  0  0  0  0  0  0  0  0  0  0  0
  -10.5718    5.6980    9.8036 C   0  0  0  0  0  0  0  0  0  0  0  0
  -11.5802    5.6873   10.6475 N   0  0  0  0  0  0  0  0  0  0  0  0
  -12.4752    4.7581   10.1578 N   0  0  0  0  0  0  0  0  0  0  0  0
  -12.0305    4.2079    9.0332 N   0  0  0  0  0  0  0  0  0  0  0  0
  -10.8569    4.8131    8.7986 N   0  0  0  0  0  0  0  0  0  0  0  0
  -10.0207    4.5136    7.6371 C   0  0  0  0  0  0  0  0  0  0  0  0
   -8.6885    5.2417    7.7444 C   0  0  0  0  0  0  0  0  0  0  0  0
   -6.9105    7.6682    9.8042 O   0  0  0  0  0  0  0  0  0  0  0  0
   -9.2244    7.0402   10.4859 H   0  0  0  0  0  0  0  0  0  0  0  0
   -6.0764    8.0950    9.8142 H   0  0  0  0  0  0  0  0  0  0  0  0
  -10.7847    4.9064    6.4107 C   0  0  0  0  0  0  0  0  0  0  0  0
  -11.0515    6.2516    6.1562 C   0  0  0  0  0  0  0  0  0  0  0  0
  -11.7628    6.6177    5.0131 C   0  0  0  0  0  0  0  0  0  0  0  0
  -12.2093    5.6385    4.1265 C   0  0  0  0  0  0  0  0  0  0  0  0
  -11.9435    4.2923    4.3810 C   0  0  0  0  0  0  0  0  0  0  0  0
  -11.2302    3.9272    5.5241 C   0  0  0  0  0  0  0  0  0  0  0  0
  -12.0231    7.9298    4.7646 O   0  0  0  0  0  0  0  0  0  0  0  0
  -11.7231    8.5879    5.3603 H   0  0  0  0  0  0  0  0  0  0  0  0
   -7.7713    4.1073    5.7205 C   0  0  0  0  0  0  0  0  0  0  0  0
   -7.6688    2.7108    5.8394 C   0  0  0  0  0  0  0  0  0  0  0  0
   -7.9279    1.9724    4.3550 S   0  0  0  0  0  0  0  0  0  0  0  0
   -8.2373    3.4202    3.5532 C   0  0  0  0  0  0  0  0  0  0  0  0
   -8.1328    4.4832    4.3963 N   0  0  0  0  0  0  0  0  0  0  0  0
   -8.4440    3.5290    2.1346 N   0  0  0  0  0  0  0  0  0  0  0  0
   -7.6583    3.4753    1.5438 H   0  0  0  0  0  0  0  0  0  0  0  0
   -9.7358    3.7119    1.5330 C   0  0  0  0  0  0  0  0  0  0  0  0
  -10.6099    2.6191    1.4273 C   0  0  0  0  0  0  0  0  0  0  0  0
  -11.8608    2.7702    0.8206 C   0  0  0  0  0  0  0  0  0  0  0  0
  -12.2421    4.0103    0.3012 C   0  0  0  0  0  0  0  0  0  0  0  0
  -13.4549    4.1553   -0.2876 F   0  0  0  0  0  0  0  0  0  0  0  0
  -11.3704    5.0994    0.3837 C   0  0  0  0  0  0  0  0  0  0  0  0
  -10.1195    4.9520    0.9906 C   0  0  0  0  0  0  0  0  0  0  0  0
   -8.2513    5.8880    3.9709 C   0  0  0  0  0  0  0  0  0  0  0  0
   -6.9292    6.4041    3.3943 C   0  0  0  0  0  0  0  0  0  0  0  0
   -6.9058    6.2689    1.9994 O   0  0  0  0  0  0  0  0  0  0  0  0
   -6.9944    5.3321    1.7638 H   0  0  0  0  0  0  0  0  0  0  0  0
  1  2  2  0  0  0
  1 13  1  0  0  0
  1 25  1  0  0  0
  2  3  1  0  0  0
  3  4  2  0  0  0
  4  5  1  0  0  0
  4 14  1  0  0  0
  5  6  1  0  0  0
  5 13  2  0  0  0
  6  7  1  0  0  0
  7  8  2  0  0  0
  7 11  1  0  0  0
  8  9  1  0  0  0
  9 10  2  0  0  0
 10 11  1  0  0  0
 11 12  1  0  0  0
 12 13  1  0  0  0
 12 17  1  0  0  0
 17 18  2  0  0  0
 17 22  1  0  0  0
 18 19  1  0  0  0
 19 20  2  0  0  0
 19 23  1  0  0  0
 20 21  1  0  0  0
 21 22  2  0  0  0
 26 27  1  0  0  0
 27 28  1  0  0  0
 28 30  1  0  0  0
 30 32  1  0  0  0
 32 33  2  0  0  0
 33 34  1  0  0  0
 34 35  2  0  0  0
 35 36  1  0  0  0
 35 37  1  0  0  0
 37 38  2  0  0  0
 28 29  2  0  0  0
 29 39  1  0  0  0
 39 40  1  0  0  0
 40 41  1  0  0  0
 38 32  1  0  0  0
 25 26  2  0  0  0
 25 29  1  0  0  0
  6 15  1  0  0  0
 23 24  1  0  0  0
 14 16  1  0  0  0
 30 31  1  0  0  0
 41 42  1  0  0  0
M  CHG 1  29   1
M  END
> <minimizedAffinity>
-6.66158

> <minimizedRMSD>
2.01093

> <CNNaffinity>
-1.0000000000

> <CNNgradient>
16.3712387085

$$$$



 42 47  0  0  0  0  0  0  0  0999 V2000
   -7.6506    5.0353    6.6794 C   0  0  0  0  0  0  0  0  0  0  0  0
   -6.4617    5.6744    6.7141 N   0  0  0  0  0  0  0  0  0  0  0  0
   -6.2086    6.5542    7.7192 N   0  0  0  0  0  0  0  0  0  0  0  0
   -7.1489    6.7642    8.6653 C   0  0  0  0  0  0  0  0  0  0  0  0
   -8.3788    6.1285    8.6678 C   0  0  0  0  0  0  0  0  0  0  0  0
   -9.3211    6.3515    9.6861 N   0  0  0  0  0  0  0  0  0  0  0  0
  -10.4857    5.6753    9.7252 C   0  0  0  0  0  0  0  0  0  0  0  0
  -11.4758    5.6584   10.5903 N   0  0  0  0  0  0  0  0  0  0  0  0
  -12.3797    4.7304   10.1147 N   0  0  0  0  0  0  0  0  0  0  0  0
  -11.9583    4.1871    8.9778 N   0  0  0  0  0  0  0  0  0  0  0  0
  -10.7908    4.7954    8.7216 N   0  0  0  0  0  0  0  0  0  0  0  0
   -9.9791    4.5036    7.5410 C   0  0  0  0  0  0  0  0  0  0  0  0
   -8.6460    5.2333    7.6239 C   0  0  0  0  0  0  0  0  0  0  0  0
   -6.8281    7.6513    9.6585 O   0  0  0  0  0  0  0  0  0  0  0  0
   -9.1260    7.0159   10.3859 H   0  0  0  0  0  0  0  0  0  0  0  0
   -5.9947    8.0795    9.6530 H   0  0  0  0  0  0  0  0  0  0  0  0
  -10.7697    4.9018    6.3333 C   0  0  0  0  0  0  0  0  0  0  0  0
  -11.0344    6.2488    6.0860 C   0  0  0  0  0  0  0  0  0  0  0  0
  -11.7705    6.6199    4.9603 C   0  0  0  0  0  0  0  0  0  0  0  0
  -12.2437    5.6440    4.0840 C   0  0  0  0  0  0  0  0  0  0  0  0
  -11.9800    4.2960    4.3313 C   0  0  0  0  0  0  0  0  0  0  0  0
  -11.2419    3.9259    5.4569 C   0  0  0  0  0  0  0  0  0  0  0  0
  -12.0287    7.9337    4.7188 O   0  0  0  0  0  0  0  0  0  0  0  0
  -11.7108    8.5896    5.3076 H   0  0  0  0  0  0  0  0  0  0  0  0
   -7.7705    4.1113    5.5747 C   0  0  0  0  0  0  0  0  0  0  0  0
   -7.8317    2.7133    5.7035 C   0  0  0  0  0  0  0  0  0  0  0  0
   -8.0163    1.9932    4.1987 S   0  0  0  0  0  0  0  0  0  0  0  0
   -8.0920    3.4583    3.3724 C   0  0  0  0  0  0  0  0  0  0  0  0
   -7.9642    4.5109    4.2252 N   0  0  0  0  0  0  0  0  0  0  0  0
   -8.1184    3.5789    1.9406 N   0  0  0  0  0  0  0  0  0  0  0  0
   -7.4361    4.1423    1.5090 H   0  0  0  0  0  0  0  0  0  0  0  0
   -9.0848    2.9233    1.1040 C   0  0  0  0  0  0  0  0  0  0  0  0
  -10.4657    3.0797    1.3225 C   0  0  0  0  0  0  0  0  0  0  0  0
  -11.3890    2.4558    0.4773 C   0  0  0  0  0  0  0  0  0  0  0  0
  -10.9434    1.6831   -0.5984 C   0  0  0  0  0  0  0  0  0  0  0  0
  -11.8399    1.0833   -1.4194 F   0  0  0  0  0  0  0  0  0  0  0  0
   -9.5728    1.5400   -0.8350 C   0  0  0  0  0  0  0  0  0  0  0  0
   -8.6473    2.1639    0.0073 C   0  0  0  0  0  0  0  0  0  0  0  0
   -7.8779    5.9126    3.7876 C   0  0  0  0  0  0  0  0  0  0  0  0
   -9.0278    6.2469    2.8348 C   0  0  0  0  0  0  0  0  0  0  0  0
   -9.3493    7.6082    2.9186 O   0  0  0  0  0  0  0  0  0  0  0  0
   -9.6240    7.8205    3.8243 H   0  0  0  0  0  0  0  0  0  0  0  0
  1  2  2  0  0  0
  1 13  1  0  0  0
  1 25  1  0  0  0
  2  3  1  0  0  0
  3  4  2  0  0  0
  4  5  1  0  0  0
  4 14  1  0  0  0
  5  6  1  0  0  0
  5 13  2  0  0  0
  6  7  1  0  0  0
  7  8  2  0  0  0
  7 11  1  0  0  0
  8  9  1  0  0  0
  9 10  2  0  0  0
 10 11  1  0  0  0
 11 12  1  0  0  0
 12 13  1  0  0  0
 12 17  1  0  0  0
 17 18  2  0  0  0
 17 22  1  0  0  0
 18 19  1  0  0  0
 19 20  2  0  0  0
 19 23  1  0  0  0
 20 21  1  0  0  0
 21 22  2  0  0  0
 26 27  1  0  0  0
 27 28  1  0  0  0
 28 30  1  0  0  0
 30 32  1  0  0  0
 32 33  2  0  0  0
 33 34  1  0  0  0
 34 35  2  0  0  0
 35 36  1  0  0  0
 35 37  1  0  0  0
 37 38  2  0  0  0
 28 29  2  0  0  0
 29 39  1  0  0  0
 39 40  1  0  0  0
 40 41  1  0  0  0
 38 32  1  0  0  0
 25 26  2  0  0  0
 25 29  1  0  0  0
  6 15  1  0  0  0
 23 24  1  0  0  0
 14 16  1  0  0  0
 30 31  1  0  0  0
 41 42  1  0  0  0
M  CHG 1  29   1
M  END
> <minimizedAffinity>
-6.63738

> <minimizedRMSD>
1.14280

> <CNNaffinity>
-1.0000000000

> <CNNgradient>
17.9502353668

$$$$



 41 48  0  0  0  0  0  0  0  0999 V2000
   -7.7308    4.9521    6.1221 C   0  0  0  0  0  0  0  0  0  0  0  0
   -6.6586    5.5496    6.6846 N   0  0  0  0  0  0  0  0  0  0  0  0
   -6.7613    6.0515    7.9439 N   0  0  0  0  0  0  0  0  0  0  0  0
   -7.9314    5.9348    8.6077 C   0  0  0  0  0  0  0  0  0  0  0  0
   -9.0529    5.3280    8.0688 C   0  0  0  0  0  0  0  0  0  0  0  0
  -10.2449    5.1998    8.8018 N   0  0  0  0  0  0  0  0  0  0  0  0
  -11.3096    4.5431    8.3014 C   0  0  0  0  0  0  0  0  0  0  0  0
  -12.4848    4.2385    8.8066 N   0  0  0  0  0  0  0  0  0  0  0  0
  -13.1407    3.5142    7.8322 N   0  0  0  0  0  0  0  0  0  0  0  0
  -12.3877    3.3764    6.7463 N   0  0  0  0  0  0  0  0  0  0  0  0
  -11.2572    4.0404    7.0290 N   0  0  0  0  0  0  0  0  0  0  0  0
  -10.1418    4.1563    6.0907 C   0  0  0  0  0  0  0  0  0  0  0  0
   -8.9522    4.8243    6.7654 C   0  0  0  0  0  0  0  0  0  0  0  0
   -7.9666    6.4478    9.8774 O   0  0  0  0  0  0  0  0  0  0  0  0
  -10.3033    5.5983    9.7001 H   0  0  0  0  0  0  0  0  0  0  0  0
   -7.2053    6.8577   10.2384 H   0  0  0  0  0  0  0  0  0  0  0  0
   -7.4700    4.4418    4.7954 C   0  0  0  0  0  0  0  0  0  0  0  0
   -7.2457    3.0652    4.5302 C   0  0  0  0  0  0  0  0  0  0  0  0
   -7.0876    2.5406    3.2826 C   0  0  0  0  0  0  0  0  0  0  0  0
   -7.1763    3.3300    2.1398 C   0  0  0  0  0  0  0  0  0  0  0  0
   -7.4421    4.7033    2.2836 C   0  0  0  0  0  0  0  0  0  0  0  0
   -7.5354    5.5221    1.1480 C   0  0  0  0  0  0  0  0  0  0  0  0
   -7.7860    6.8883    1.2841 C   0  0  0  0  0  0  0  0  0  0  0  0
   -7.9411    7.4514    2.5512 C   0  0  0  0  0  0  0  0  0  0  0  0
   -7.8525    6.6536    3.6946 C   0  0  0  0  0  0  0  0  0  0  0  0
   -7.6117    5.2681    3.5848 C   0  0  0  0  0  0  0  0  0  0  0  0
   -6.8088    1.0894    3.3548 C   0  0  0  0  0  0  0  0  0  0  0  0
   -7.0560    0.7112    4.7782 N   0  0  0  0  0  0  0  0  0  0  0  0
   -6.0363   -0.2203    5.2998 C   0  0  0  0  0  0  0  0  0  0  0  0
   -6.6820   -0.9739    6.4561 C   0  0  0  0  0  0  0  0  0  0  0  0
   -8.1822   -0.8614    6.2180 C   0  0  0  0  0  0  0  0  0  0  0  0
   -8.3240   -0.0334    4.9451 C   0  0  0  0  0  0  0  0  0  0  0  0
   -7.0896    1.9965    5.5487 C   0  0  0  0  0  0  0  0  0  0  0  0
  -10.6244    4.9256    4.9002 C   0  0  0  0  0  0  0  0  0  0  0  0
  -10.9916    6.2643    5.0369 C   0  0  0  0  0  0  0  0  0  0  0  0
  -11.4406    6.9813    3.9274 C   0  0  0  0  0  0  0  0  0  0  0  0
  -11.5248    6.3589    2.6826 C   0  0  0  0  0  0  0  0  0  0  0  0
  -11.1585    5.0193    2.5453 C   0  0  0  0  0  0  0  0  0  0  0  0
  -10.7076    4.3032    3.6556 C   0  0  0  0  0  0  0  0  0  0  0  0
  -11.7987    8.2872    4.0605 O   0  0  0  0  0  0  0  0  0  0  0  0
  -11.7422    8.7056    4.8970 H   0  0  0  0  0  0  0  0  0  0  0  0
  1  2  2  0  0  0
  1 13  1  0  0  0
  1 17  1  0  0  0
  2  3  1  0  0  0
  3  4  2  0  0  0
  4  5  1  0  0  0
  4 14  1  0  0  0
  5  6  1  0  0  0
  5 13  2  0  0  0
  6  7  1  0  0  0
  7  8  2  0  0  0
  7 11  1  0  0  0
  8  9  1  0  0  0
  9 10  2  0  0  0
 10 11  1  0  0  0
 11 12  1  0  0  0
 12 13  1  0  0  0
 12 34  1  0  0  0
 34 35  2  0  0  0
 34 39  1  0  0  0
 35 36  1  0  0  0
 36 37  2  0  0  0
 36 40  1  0  0  0
 37 38  1  0  0  0
 38 39  2  0  0  0
 18 19  2  0  0  0
 19 20  1  0  0  0
 20 21  2  0  0  0
 21 22  1  0  0  0
 22 23  2  0  0  0
 23 24  1  0  0  0
 24 25  2  0  0  0
 25 26  1  0  0  0
 19 27  1  0  0  0
 27 28  1  0  0  0
 28 29  1  0  0  0
 29 30  1  0  0  0
 30 31  1  0  0  0
 31 32  1  0  0  0
 28 33  1  0  0  0
 32 28  1  0  0  0
 33 18  1  0  0  0
 26 21  1  0  0  0
 17 18  1  0  0  0
 17 26  2  0  0  0
  6 15  1  0  0  0
 40 41  1  0  0  0
 14 16  1  0  0  0
M  CHG 1  28   1
M  END
> <minimizedAffinity>
-6.59566

> <minimizedRMSD>
2.06399

> <CNNaffinity>
-1.0000000000

> <CNNgradient>
19.4972972870

$$$$
